7gqj_B_201_1_7gp7+A+201+1__LIG
     RDKit          3D

 12 13  0  0  0  0  0  0  0  0999 V2000
  -10.6960  -24.2480   27.6640 C   0  0  0  0  0  0  0  0  0  0  0  0
  -10.8450  -24.7740   26.2740 C   0  0  0  0  0  0  0  0  0  0  0  0
   -9.9620  -24.6960   28.7350 C   0  0  0  0  0  0  0  0  0  0  0  0
  -10.3750  -23.0660   32.1760 C   0  0  0  0  0  0  0  0  0  0  0  0
   -8.8360  -24.8100   31.5950 C   0  0  0  0  0  0  0  0  0  0  0  0
   -9.9510  -23.1390   33.4930 C   0  0  0  0  0  0  0  0  0  0  0  0
   -8.4240  -24.8760   32.9160 C   0  0  0  0  0  0  0  0  0  0  0  0
   -8.9790  -24.0400   33.8620 C   0  0  0  0  0  0  0  0  0  0  0  0
  -10.2690  -23.8320   29.8040 C   0  0  0  0  0  0  0  0  0  0  0  0
  -11.1330  -22.8880   29.4050 N   0  0  0  0  0  0  0  0  0  0  0  0
   -9.8170  -23.9000   31.2060 C   0  0  0  0  0  0  0  0  0  0  0  0
  -11.3770  -23.1690   28.0940 N   0  0  0  0  0  0  0  0  0  0  0  0
  1  2  1  0
  1  3  1  0
  1 12  2  0
  3  9  2  0
  4  6  2  0
  4 11  1  0
  5  7  1  0
  5 11  2  0
  6  8  1  0
  7  8  2  0
  9 10  1  0
  9 11  1  0
 10 12  1  0
M  END
$$$$
