7gqf_A_201_1_7gp9+A+201+1__LIG
     RDKit          3D

 10 11  0  0  0  0  0  0  0  0999 V2000
   -1.4190   -8.1260   31.1110 N   0  0  0  0  0  0  0  0  0  0  0  0
   -0.2530   -6.8140   32.4920 N   0  0  0  0  0  0  0  0  0  0  0  0
    0.6230   -5.8280   34.4510 C   0  0  0  0  0  0  0  0  0  0  0  0
    0.6440   -5.9570   33.1050 C   0  0  0  0  0  0  0  0  0  0  0  0
    0.2560   -6.7270   30.1550 N   0  0  0  0  0  0  0  0  0  0  0  0
   -0.4570   -7.2170   31.1740 C   0  0  0  0  0  0  0  0  0  0  0  0
   -1.1810   -7.5560   33.2180 C   0  0  0  0  0  0  0  0  0  0  0  0
   -1.8830   -8.3430   32.4110 N   0  0  0  0  0  0  0  0  0  0  0  0
   -0.3160   -6.5540   35.2160 C   0  0  0  0  0  0  0  0  0  0  0  0
   -1.2030   -7.3980   34.6240 C   0  0  0  0  0  0  0  0  0  0  0  0
 10  9  2  0
 10  7  1  0
  9  3  1  0
  8  7  2  0
  8  1  1  0
  7  2  1  0
  3  4  2  0
  1  6  2  0
  2  4  1  0
  2  6  1  0
  6  5  1  0
M  END
$$$$
