7gq1_A_201_1_7gq1+A+201+1__LIG
     RDKit          3D

  8  8  0  0  0  0  0  0  0  0999 V2000
   -4.8600  -27.1610   12.9480 C   0  0  0  0  0  0  0  0  0  0  0  0
   -4.3250  -26.2740   10.6010 C   0  0  0  0  0  0  0  0  0  0  0  0
   -5.5750  -26.2980   10.2650 O   0  0  0  0  0  0  0  0  0  0  0  0
   -3.9620  -26.6570   12.0370 C   0  0  0  0  0  0  0  0  0  0  0  0
   -2.6850  -26.5540   12.6190 C   0  0  0  0  0  0  0  0  0  0  0  0
   -2.6380  -26.9920   13.8940 C   0  0  0  0  0  0  0  0  0  0  0  0
   -3.4400  -26.0510    9.7580 O   0  0  0  0  0  0  0  0  0  0  0  0
   -4.1190  -27.5300   14.4560 S   0  0  0  0  0  0  0  0  0  0  0  0
  6  5  2  0
  6  8  1  0
  5  4  1  0
  3  2  2  0
  4  2  1  0
  4  1  2  0
  8  1  1  0
  2  7  1  0
M  END
$$$$
