7gok_A_201_1_7gok+A+201+1__LIG
     RDKit          3D

 12 13  0  0  0  0  0  0  0  0999 V2000
  -10.7020  -25.6690   27.9200 C   0  0  0  0  0  0  0  0  0  0  0  0
  -10.5000  -25.3040   33.3370 N   0  0  0  0  0  0  0  0  0  0  0  0
  -11.4380  -24.4740   32.8860 C   0  0  0  0  0  0  0  0  0  0  0  0
  -12.2880  -23.9470   33.6320 O   0  0  0  0  0  0  0  0  0  0  0  0
  -11.4690  -24.1830   31.4110 C   0  0  0  0  0  0  0  0  0  0  0  0
  -12.0620  -22.9960   30.9520 C   0  0  0  0  0  0  0  0  0  0  0  0
  -12.1960  -22.7420   29.5940 C   0  0  0  0  0  0  0  0  0  0  0  0
  -11.7450  -23.7010   28.6920 C   0  0  0  0  0  0  0  0  0  0  0  0
  -11.8860  -23.7160   27.3130 N   0  0  0  0  0  0  0  0  0  0  0  0
  -11.0600  -24.7660   26.7230 C   0  0  0  0  0  0  0  0  0  0  0  0
  -11.1220  -24.8640   29.1200 C   0  0  0  0  0  0  0  0  0  0  0  0
  -10.9840  -25.1050   30.4830 C   0  0  0  0  0  0  0  0  0  0  0  0
  2  3  1  0
  4  3  2  0
  3  5  1  0
  5 12  1  0
  5  6  2  0
 12 11  2  0
  6  7  1  0
 11  8  1  0
 11  1  1  0
  7  8  2  0
  8  9  1  0
  1 10  2  0
  9 10  1  0
M  END
$$$$
