7gqg_B_201_1_7gpw+B+202+1__LIG
     RDKit          3D

 16 17  0  0  0  0  0  0  0  0999 V2000
  -10.9020    3.2490   10.8700 N   0  0  0  0  0  0  0  0  0  0  0  0
  -12.8580    1.0680   11.1060 C   0  0  0  0  0  0  0  0  0  0  0  0
  -13.0030    1.6810   12.3470 C   0  0  0  0  0  0  0  0  0  0  0  0
  -11.0070    3.2690   12.2170 C   0  0  0  0  0  0  0  0  0  0  0  0
   -9.9510    4.0410   10.3610 C   0  0  0  0  0  0  0  0  0  0  0  0
   -9.1120    4.8180   11.1370 C   0  0  0  0  0  0  0  0  0  0  0  0
  -14.0840    1.3630   13.1580 C   0  0  0  0  0  0  0  0  0  0  0  0
  -16.3920    0.7000   14.6390 O   0  0  0  0  0  0  0  0  0  0  0  0
  -16.2530    0.1950   13.5320 C   0  0  0  0  0  0  0  0  0  0  0  0
  -17.1030   -0.6710   12.9980 O   0  0  0  0  0  0  0  0  0  0  0  0
  -15.0700    0.4950   12.6910 C   0  0  0  0  0  0  0  0  0  0  0  0
  -13.8270    0.1870   10.6510 C   0  0  0  0  0  0  0  0  0  0  0  0
  -14.9330   -0.0890   11.4300 C   0  0  0  0  0  0  0  0  0  0  0  0
  -12.0570    2.6180   12.7930 N   0  0  0  0  0  0  0  0  0  0  0  0
  -10.2590    3.9900   13.0660 N   0  0  0  0  0  0  0  0  0  0  0  0
   -9.3050    4.7440   12.5020 C   0  0  0  0  0  0  0  0  0  0  0  0
 10  9  1  0
  9  8  2  0
 11  9  1  0
 11 13  2  0
 13 12  1  0
 12  2  2  0
  2  3  1  0
 14  3  1  0
  4 14  1  0
  4  1  2  0
  1  5  1  0
  5  6  2  0
  6 16  1  0
 16 15  2  0
 15  4  1  0
  3  7  2  0
  7 11  1  0
M  END
$$$$
