7gon_B_201_1_7gon+B+201+1__LIG
     RDKit          3D

 14 14  0  0  0  0  0  0  0  0999 V2000
   13.2370   -1.8480   16.4930 C   0  0  0  0  0  0  0  0  0  0  0  0
   13.5690   -2.9930   17.1940 C   0  0  0  0  0  0  0  0  0  0  0  0
   12.8490   -4.1530   16.9670 C   0  0  0  0  0  0  0  0  0  0  0  0
   11.8260   -4.1780   16.0370 C   0  0  0  0  0  0  0  0  0  0  0  0
   11.5470   -3.0280   15.3570 C   0  0  0  0  0  0  0  0  0  0  0  0
   14.0840    2.2710   15.2910 N   0  0  0  0  0  0  0  0  0  0  0  0
   14.4980    3.1140   16.4140 C   0  0  0  0  0  0  0  0  0  0  0  0
   12.6310    0.7880   14.4470 O   0  0  0  0  0  0  0  0  0  0  0  0
   14.6290    2.6720   13.9930 C   0  0  0  0  0  0  0  0  0  0  0  0
   13.2640    1.2090   15.4040 C   0  0  0  0  0  0  0  0  0  0  0  0
   13.1180    0.5120   16.7480 C   0  0  0  0  0  0  0  0  0  0  0  0
   12.2140   -1.8520   15.5550 C   0  0  0  0  0  0  0  0  0  0  0  0
   10.5720   -3.0480   14.4180 F   0  0  0  0  0  0  0  0  0  0  0  0
   13.8970   -0.6780   16.7550 O   0  0  0  0  0  0  0  0  0  0  0  0
  9  6  1  0
  6  7  1  0
  6 10  1  0
  8 10  2  0
 10 11  1  0
 11 14  1  0
 14  1  1  0
 12  1  2  0
 12  5  1  0
  1  2  1  0
 13  5  1  0
  5  4  2  0
  2  3  2  0
  4  3  1  0
M  END
$$$$
