7gob_B_201_1_7gob+B+201+1__LIG
     RDKit          3D

 12 12  0  0  0  0  0  0  0  0999 V2000
  -12.2290  -25.5900   25.6160 C   0  0  0  0  0  0  0  0  0  0  0  0
  -12.0650  -24.3870   26.2810 C   0  0  0  0  0  0  0  0  0  0  0  0
  -11.3090  -24.2990   27.4430 C   0  0  0  0  0  0  0  0  0  0  0  0
  -14.4850  -23.2610   25.7420 N   0  0  0  0  0  0  0  0  0  0  0  0
   -9.9140  -25.3590   29.2540 C   0  0  0  0  0  0  0  0  0  0  0  0
  -12.5640  -22.8160   24.2790 O   0  0  0  0  0  0  0  0  0  0  0  0
  -10.7060  -25.4340   27.9730 C   0  0  0  0  0  0  0  0  0  0  0  0
  -10.8720  -26.6420   27.3130 C   0  0  0  0  0  0  0  0  0  0  0  0
  -11.6250  -26.6870   26.1670 C   0  0  0  0  0  0  0  0  0  0  0  0
  -11.7960  -27.8890   25.5500 F   0  0  0  0  0  0  0  0  0  0  0  0
  -12.6290  -21.8680   26.5520 O   0  0  0  0  0  0  0  0  0  0  0  0
  -12.9070  -22.9620   25.6640 S   0  0  0  0  0  0  0  0  0  0  0  0
  5  7  1  0
  7  8  2  0
  8  9  1  0
 10  9  1  0
  9  1  2  0
  1  2  1  0
  3  2  2  0
  7  3  1  0
  2 12  1  0
  6 12  2  0
 12 11  2  0
  4 12  1  0
M  END
$$$$
