7go7_B_201_1_7gon+B+201+1__LIG
     RDKit          3D

 16 17  0  0  0  0  0  0  0  0999 V2000
   16.5220   -0.8720   13.3170 N   0  0  0  0  0  0  0  0  0  0  0  0
   15.2670    0.4140   15.0260 C   0  0  0  0  0  0  0  0  0  0  0  0
   14.0140   -0.3670   14.7460 C   0  0  0  0  0  0  0  0  0  0  0  0
   13.0830   -0.1130   13.7830 C   0  0  0  0  0  0  0  0  0  0  0  0
   12.3420   -1.9270   14.8500 C   0  0  0  0  0  0  0  0  0  0  0  0
   13.5540   -1.5350   15.4510 C   0  0  0  0  0  0  0  0  0  0  0  0
   13.3530   -3.4120   16.8840 C   0  0  0  0  0  0  0  0  0  0  0  0
   16.8940   -3.1150   14.1210 C   0  0  0  0  0  0  0  0  0  0  0  0
   12.1660   -3.8100   16.3060 C   0  0  0  0  0  0  0  0  0  0  0  0
   11.6440   -3.0520   15.2710 C   0  0  0  0  0  0  0  0  0  0  0  0
   16.4380   -2.1770   13.0400 C   0  0  0  0  0  0  0  0  0  0  0  0
   16.5400   -0.3440   14.6800 C   0  0  0  0  0  0  0  0  0  0  0  0
   14.0650   -2.2940   16.5000 C   0  0  0  0  0  0  0  0  0  0  0  0
   13.8600   -4.1740   17.8870 F   0  0  0  0  0  0  0  0  0  0  0  0
   12.0750   -1.0390   13.8400 N   0  0  0  0  0  0  0  0  0  0  0  0
   16.0220   -2.5850   11.9540 O   0  0  0  0  0  0  0  0  0  0  0  0
 14  7  1  0
 13  7  1  0
 13  6  2  0
  7  9  2  0
  2 12  1  0
  2  3  1  0
 12  1  1  0
  6  3  1  0
  6  5  1  0
  9 10  1  0
  3  4  2  0
  1 11  1  0
  5 10  2  0
  5 15  1  0
 11  8  1  0
 11 16  2  0
  4 15  1  0
M  END
$$$$
