7gpe_A_201_1_7gp7+A+201+1__LIG
     RDKit          3D

 12 13  0  0  0  0  0  0  0  0999 V2000
  -12.1750  -22.8530   28.0030 N   0  0  0  0  0  0  0  0  0  0  0  0
   -9.6340  -24.1230   30.3720 C   0  0  0  0  0  0  0  0  0  0  0  0
   -9.1980  -24.0440   31.6830 C   0  0  0  0  0  0  0  0  0  0  0  0
  -11.1060  -23.3670   28.5240 C   0  0  0  0  0  0  0  0  0  0  0  0
  -12.1960  -23.3200   26.7310 C   0  0  0  0  0  0  0  0  0  0  0  0
   -9.3090  -23.0230   33.8710 N   0  0  0  0  0  0  0  0  0  0  0  0
   -9.7530  -23.1140   32.5660 C   0  0  0  0  0  0  0  0  0  0  0  0
  -10.4080  -24.1260   27.6640 O   0  0  0  0  0  0  0  0  0  0  0  0
  -10.7640  -22.2760   32.0950 C   0  0  0  0  0  0  0  0  0  0  0  0
  -11.2040  -22.3660   30.7860 C   0  0  0  0  0  0  0  0  0  0  0  0
  -10.6380  -23.2820   29.9060 C   0  0  0  0  0  0  0  0  0  0  0  0
  -11.1300  -24.1060   26.4480 N   0  0  0  0  0  0  0  0  0  0  0  0
 12  5  2  0
 12  8  1  0
  5  1  1  0
  8  4  1  0
  1  4  2  0
  4 11  1  0
 11 10  1  0
 11  2  2  0
 10  9  2  0
  2  3  1  0
  9  7  1  0
  3  7  2  0
  7  6  1  0
M  END
$$$$
