D68EV3CPROB-x1169_A_308_1_7gp9+A+201+1__LIG
     RDKit          3D

 14 15  0  0  0  0  0  0  0  0999 V2000
    0.0000    0.0000    0.0000 Cl  0  0  0  0  0  0  0  0  0  0  0  0
   -0.7610   -5.2580   25.3520 C   0  0  2  0  0  0  0  0  0  0  0  0
   -0.2870   -5.3960   26.7810 C   0  0  0  0  0  0  0  0  0  0  0  0
   -0.7310   -6.2920   27.4940 O   0  0  0  0  0  0  0  0  0  0  0  0
    0.6240   -4.4920   27.2220 N   0  0  0  0  0  0  0  0  0  0  0  0
    1.2530   -3.4380   26.4170 C   0  0  0  0  0  0  0  0  0  0  0  0
    2.7440   -3.4590   26.6290 C   0  0  0  0  0  0  0  0  0  0  0  0
    3.7130   -2.8520   25.7810 C   0  0  0  0  0  0  0  0  0  0  0  0
    4.9890   -3.0670   26.2120 C   0  0  0  0  0  0  0  0  0  0  0  0
    5.0280   -4.0010   27.6370 S   0  0  0  0  0  0  0  0  0  0  0  0
    3.3010   -4.1110   27.6800 C   0  0  0  0  0  0  0  0  0  0  0  0
    2.5270   -4.8420   28.7350 C   0  0  0  0  0  0  0  0  0  0  0  0
    1.0660   -4.4390   28.6210 C   0  0  0  0  0  0  0  0  0  0  0  0
    0.5220   -6.0930   24.5730 S   0  0  0  0  0  0  0  0  0  0  0  0
  4  3  2  0
  3  2  1  0
  2  1  1  0
  5  3  1  0
  5 13  1  0
 13 12  1  0
 12 11  1  0
 11 10  1  0
 10  9  1  0
  9  8  2  0
  8  7  1  0
 11  7  2  0
  7  6  1  0
  6  5  1  0
  2 14  1  6
M  END
$$$$
