D68EV3CPROB-x0875_B_301_1_7gp9+A+201+1__LIG
     RDKit          3D

 18 20  0  0  0  0  0  0  0  0999 V2000
    0.4630   -7.3520   35.6810 O   0  0  0  0  0  0  0  0  0  0  0  0
   -0.1670   -6.3260   35.9050 C   0  0  0  0  0  0  0  0  0  0  0  0
   -0.3500   -5.8550   37.2020 N   0  0  0  0  0  0  0  0  0  0  0  0
   -0.0960   -6.5820   38.3780 C   0  0  0  0  0  0  0  0  0  0  0  0
   -0.5760   -6.3550   39.6380 C   0  0  0  0  0  0  0  0  0  0  0  0
   -0.0940   -7.3190   40.4290 N   0  0  0  0  0  0  0  0  0  0  0  0
    0.6910   -8.1750   39.7420 N   0  0  0  0  0  0  0  0  0  0  0  0
    0.6990   -7.7280   38.4930 C   0  0  0  0  0  0  0  0  0  0  0  0
   -0.2820   -5.3690   34.9120 N   0  0  0  0  0  0  0  0  0  0  0  0
   -0.0810   -5.6760   33.5660 C   0  0  0  0  0  0  0  0  0  0  0  0
   -0.8520   -6.6970   32.9730 N   0  0  0  0  0  0  0  0  0  0  0  0
   -1.7600   -7.5860   33.4760 C   0  0  0  0  0  0  0  0  0  0  0  0
   -2.1530   -8.4200   32.5580 N   0  0  0  0  0  0  0  0  0  0  0  0
   -1.5040   -8.0830   31.3730 N   0  0  0  0  0  0  0  0  0  0  0  0
   -0.7240   -7.0400   31.6320 C   0  0  0  0  0  0  0  0  0  0  0  0
    0.2020   -6.3160   30.8390 C   0  0  0  0  0  0  0  0  0  0  0  0
    0.9580   -5.3230   31.4060 C   0  0  0  0  0  0  0  0  0  0  0  0
    0.8350   -4.9980   32.7770 C   0  0  0  0  0  0  0  0  0  0  0  0
  2  1  2  0
  3  2  1  0
  4  3  1  0
  4  8  1  0
  8  7  2  0
  7  6  1  0
  6  5  1  0
  5  4  2  0
  9  2  1  0
 10  9  1  0
 10 18  2  0
 18 17  1  0
 17 16  2  0
 16 15  1  0
 15 14  2  0
 14 13  1  0
 13 12  2  0
 12 11  1  0
 11 10  1  0
 15 11  1  0
M  END
$$$$
