D68EV3CPROB-x1033_A_308_1_7gpw+B+202+1__LIG
     RDKit          3D

 19 21  0  0  0  0  0  0  0  0999 V2000
   -9.8790    1.1550    9.4720 O   0  0  0  0  0  0  0  0  0  0  0  0
  -10.6860   -0.0110    9.3140 S   0  0  0  0  0  0  0  0  0  0  0  0
  -11.6900   -0.3090   10.2820 O   0  0  0  0  0  0  0  0  0  0  0  0
  -11.2340   -0.1310    7.7750 N   0  0  0  0  0  0  0  0  0  0  0  0
  -11.2860    1.0740    6.9250 C   0  0  0  0  0  0  0  0  0  0  0  0
  -11.1760    0.6640    5.4730 C   0  0  0  0  0  0  0  0  0  0  0  0
  -12.1880   -0.3430    5.1260 N   0  0  0  0  0  0  0  0  0  0  0  0
  -13.0880   -0.6250    6.2570 C   0  0  0  0  0  0  0  0  0  0  0  0
  -12.3210   -1.0850    7.4830 C   0  0  0  0  0  0  0  0  0  0  0  0
   -9.6570   -1.2550    9.3560 N   0  0  0  0  0  0  0  0  0  0  0  0
   -8.4680   -1.3850    8.5700 C   0  0  0  0  0  0  0  0  0  0  0  0
   -7.4000   -0.4980    8.7170 C   0  0  0  0  0  0  0  0  0  0  0  0
   -6.2450   -0.7350    7.9960 C   0  0  0  0  0  0  0  0  0  0  0  0
   -5.0560   -0.0510    8.1460 O   0  0  0  0  0  0  0  0  0  0  0  0
   -4.0340   -0.8150    7.4490 C   0  0  0  0  0  0  0  0  0  0  0  0
   -4.7470   -1.7780    6.5150 C   0  0  0  0  0  0  0  0  0  0  0  0
   -6.1300   -1.7840    7.1050 C   0  0  0  0  0  0  0  0  0  0  0  0
   -7.2080   -2.6450    6.9450 C   0  0  0  0  0  0  0  0  0  0  0  0
   -8.3660   -2.4550    7.6830 C   0  0  0  0  0  0  0  0  0  0  0  0
  3  2  2  0
  2  1  2  0
 10  2  1  0
 11 10  1  0
 11 19  2  0
 19 18  1  0
 18 17  2  0
 17 13  1  0
 13 12  2  0
 12 11  1  0
 14 13  1  0
 15 14  1  0
 16 15  1  0
 17 16  1  0
  4  2  1  0
  4  9  1  0
  9  8  1  0
  8  7  1  0
  7  6  1  0
  6  5  1  0
  5  4  1  0
M  END
$$$$
