7gov_B_201_1_D68EV3CPROB-x0517+A+209+1__LIG
     RDKit          3D

 17 18  0  0  0  0  0  0  0  0999 V2000
   -1.7860   -8.3390   31.4330 N   0  0  0  0  0  0  0  0  0  0  0  0
    0.6550   -3.7360   38.2070 C   0  0  0  0  0  0  0  0  0  0  0  0
    0.0450   -4.4030   37.1740 C   0  0  0  0  0  0  0  0  0  0  0  0
    0.7260   -4.5010   35.9600 C   0  0  0  0  0  0  0  0  0  0  0  0
    0.3190   -6.5560   34.7190 C   0  0  0  0  0  0  0  0  0  0  0  0
   -0.4200   -7.1590   33.5680 C   0  0  0  0  0  0  0  0  0  0  0  0
   -0.9010   -7.3540   31.2390 C   0  0  0  0  0  0  0  0  0  0  0  0
    0.1540   -5.2300   34.8970 N   0  0  0  0  0  0  0  0  0  0  0  0
    2.7820   -4.0740   34.5170 C   0  0  0  0  0  0  0  0  0  0  0  0
    1.0130   -7.2460   35.4590 O   0  0  0  0  0  0  0  0  0  0  0  0
    1.9980   -3.9230   35.7960 C   0  0  0  0  0  0  0  0  0  0  0  0
   -1.9860   -8.7330   32.6960 C   0  0  0  0  0  0  0  0  0  0  0  0
   -1.3360   -8.1810   33.7840 C   0  0  0  0  0  0  0  0  0  0  0  0
    2.5440   -3.2370   36.8800 C   0  0  0  0  0  0  0  0  0  0  0  0
    1.8850   -3.1450   38.0920 C   0  0  0  0  0  0  0  0  0  0  0  0
   -0.2030   -6.7390   32.2600 C   0  0  0  0  0  0  0  0  0  0  0  0
    0.0140   -3.6840   39.4080 F   0  0  0  0  0  0  0  0  0  0  0  0
  9 11  1  0
 11 14  2  0
 11  4  1  0
 14 15  1  0
  7 16  1  0
  7  1  2  0
 16  6  2  0
  8  4  1  0
  8  5  1  0
  4  3  2  0
 15  2  2  0
  1 12  1  0
  6  5  1  0
  6 13  1  0
  5 10  2  0
  3  2  1  0
  2 17  1  0
 12 13  2  0
M  END
$$$$
