D68EV3CPROB-x0914_A_308_1_7gp9+A+201+1__LIG
     RDKit          3D

 24 27  0  0  0  0  0  0  0  0999 V2000
    2.6520   -1.7390   29.9240 C   0  0  0  0  0  0  0  0  0  0  0  0
    1.9610   -2.3400   29.0290 C   0  0  0  0  0  0  0  0  0  0  0  0
    0.8420   -3.2790   29.3100 C   0  0  0  0  0  0  0  0  0  0  0  0
   -0.0470   -2.8300   30.3930 N   0  0  0  0  0  0  0  0  0  0  0  0
   -1.2450   -2.1750   30.2220 C   0  0  0  0  0  0  0  0  0  0  0  0
   -1.4700   -1.0510   29.2920 C   0  0  0  0  0  0  0  0  0  0  0  0
   -2.2990   -1.1790   28.1850 C   0  0  0  0  0  0  0  0  0  0  0  0
   -2.4830   -0.2090   27.2760 N   0  0  0  0  0  0  0  0  0  0  0  0
   -1.8290    0.9420   27.4620 C   0  0  0  0  0  0  0  0  0  0  0  0
   -0.9940    1.1730   28.5360 C   0  0  0  0  0  0  0  0  0  0  0  0
   -0.8170    0.1610   29.4620 C   0  0  0  0  0  0  0  0  0  0  0  0
   -2.1390   -2.6320   31.0760 N   0  0  0  0  0  0  0  0  0  0  0  0
   -1.5190   -3.5940   31.8740 N   0  0  0  0  0  0  0  0  0  0  0  0
   -0.2700   -3.6590   31.4770 C   0  0  0  0  0  0  0  0  0  0  0  0
    1.0430   -4.4520   32.3240 S   0  0  0  0  0  0  0  0  0  0  0  0
    0.2550   -5.7380   33.1900 C   0  0  0  0  0  0  0  0  0  0  0  0
   -0.4670   -6.7510   32.5360 N   0  0  0  0  0  0  0  0  0  0  0  0
   -0.6510   -7.1030   31.2280 C   0  0  0  0  0  0  0  0  0  0  0  0
   -1.4410   -8.1350   31.1290 N   0  0  0  0  0  0  0  0  0  0  0  0
   -1.8040   -8.5100   32.4190 N   0  0  0  0  0  0  0  0  0  0  0  0
   -1.2070   -7.6760   33.2570 C   0  0  0  0  0  0  0  0  0  0  0  0
   -1.1990   -7.5960   34.6700 C   0  0  0  0  0  0  0  0  0  0  0  0
   -0.4660   -6.6320   35.2830 C   0  0  0  0  0  0  0  0  0  0  0  0
    0.2680   -5.6980   34.5430 C   0  0  0  0  0  0  0  0  0  0  0  0
  2  1  2  0
  3  2  1  0
  4  3  1  0
  4 14  1  0
 15 14  1  0
 16 15  1  0
 16 24  2  0
 24 23  1  0
 23 22  2  0
 22 21  1  0
 21 20  2  0
 20 19  1  0
 19 18  2  0
 18 17  1  0
 17 16  1  0
 21 17  1  0
 14 13  2  0
 13 12  1  0
 12  5  2  0
  5  4  1  0
  6  5  1  0
  6 11  2  0
 11 10  1  0
 10  9  2  0
  9  8  1  0
  8  7  2  0
  7  6  1  0
M  END
$$$$
