7gp4_A_201_1_7gp7+A+201+1__LIG
     RDKit          3D

 14 15  0  0  0  0  0  0  0  0999 V2000
  -11.6460  -22.6860   27.8960 N   0  0  0  0  0  0  0  0  0  0  0  0
   -9.4250  -22.0380   33.8420 C   0  0  0  0  0  0  0  0  0  0  0  0
  -10.3970  -21.1370   33.4820 C   0  0  0  0  0  0  0  0  0  0  0  0
  -10.8580  -21.0900   32.1790 C   0  0  0  0  0  0  0  0  0  0  0  0
  -12.2610  -23.6570   26.9870 C   0  0  0  0  0  0  0  0  0  0  0  0
  -12.4820  -22.8630   25.7140 C   0  0  0  0  0  0  0  0  0  0  0  0
  -11.6420  -21.3430   27.3150 C   0  0  0  0  0  0  0  0  0  0  0  0
  -10.8260  -21.9150   29.9050 N   0  0  0  0  0  0  0  0  0  0  0  0
  -11.1730  -22.9790   29.1370 C   0  0  0  0  0  0  0  0  0  0  0  0
  -11.0760  -24.1310   29.5260 O   0  0  0  0  0  0  0  0  0  0  0  0
  -10.3410  -21.9590   31.2270 C   0  0  0  0  0  0  0  0  0  0  0  0
   -9.3570  -22.8650   31.5950 C   0  0  0  0  0  0  0  0  0  0  0  0
   -8.9040  -22.8970   32.8990 C   0  0  0  0  0  0  0  0  0  0  0  0
  -12.5840  -21.4590   26.1420 C   0  0  0  0  0  0  0  0  0  0  0  0
 14  6  1  0
 14  7  1  0
  6  5  1  0
  7  1  1  0
  5  1  1  0
  1  9  1  0
  8  9  1  0
  8 11  1  0
  9 10  2  0
 11 12  2  0
 11  4  1  0
 12 13  1  0
  4  3  2  0
 13  2  2  0
  3  2  1  0
M  END
$$$$
