D68EV3CPROB-x1462_A_308_1_7gp9+A+201+1__LIG
     RDKit          3D

 16 16  0  0  0  0  0  0  0  0999 V2000
   -2.0070   -8.6710   31.6600 O   0  0  0  0  0  0  0  0  0  0  0  0
   -1.3780   -7.7640   32.2110 C   0  0  0  0  0  0  0  0  0  0  0  0
   -1.2710   -7.6590   33.5380 N   0  0  0  0  0  0  0  0  0  0  0  0
   -0.6760   -6.7400   31.3640 C   0  0  0  0  0  0  0  0  0  0  0  0
   -0.5370   -5.4150   31.7660 C   0  0  0  0  0  0  0  0  0  0  0  0
    0.0770   -4.4940   30.9350 C   0  0  0  0  0  0  0  0  0  0  0  0
    0.5720   -4.8860   29.7010 C   0  0  0  0  0  0  0  0  0  0  0  0
   -0.1740   -7.1310   30.1230 C   0  0  0  0  0  0  0  0  0  0  0  0
    0.4790   -6.2160   29.2900 C   0  0  0  0  0  0  0  0  0  0  0  0
    1.2030   -6.6190   28.0840 C   0  0  0  0  0  0  0  0  0  0  0  0
    2.1200   -5.8230   27.5520 C   0  0  0  0  0  0  0  0  0  0  0  0
    3.4450   -5.7580   28.1740 C   0  0  0  0  0  0  0  0  0  0  0  0
    3.8490   -6.5140   29.0170 O   0  0  0  0  0  0  0  0  0  0  0  0
    4.2140   -4.8170   27.6170 O   0  0  0  0  0  0  0  0  0  0  0  0
    4.2230   -3.5300   28.3060 C   0  0  0  0  0  0  0  0  0  0  0  0
    5.1820   -3.5970   29.4480 C   0  0  0  0  0  0  0  0  0  0  0  0
 16 15  1  0
 15 14  1  0
 14 12  1  0
 13 12  2  0
 12 11  1  0
 11 10  2  0
 10  9  1  0
  9  7  1  0
  7  6  2  0
  6  5  1  0
  5  4  2  0
  4  2  1  0
  3  2  1  0
  2  1  2  0
  8  4  1  0
  9  8  2  0
M  END
$$$$
