7gpw_A_201_1_7gpw+A+201+1__LIG
     RDKit          3D

  8  8  0  0  0  0  0  0  0  0999 V2000
  -12.2530  -23.8170   30.8100 C   0  0  0  0  0  0  0  0  0  0  0  0
  -13.1970  -23.0690   31.3950 C   0  0  0  0  0  0  0  0  0  0  0  0
  -13.3580  -23.0790   32.7390 N   0  0  0  0  0  0  0  0  0  0  0  0
  -11.4880  -24.5670   31.6780 C   0  0  0  0  0  0  0  0  0  0  0  0
  -12.7870  -23.7320   34.7800 O   0  0  0  0  0  0  0  0  0  0  0  0
  -12.6050  -23.8360   33.5880 C   0  0  0  0  0  0  0  0  0  0  0  0
  -11.6140  -24.6310   32.9920 C   0  0  0  0  0  0  0  0  0  0  0  0
  -10.0310  -25.6790   30.7660 I   0  0  0  0  0  0  0  0  0  0  0  0
  3  2  2  0
  3  6  1  0
  5  6  2  0
  2  1  1  0
  6  7  1  0
  1  4  2  0
  7  4  1  0
  4  8  1  0
M  END
$$$$
