7goy_A_202_1_7goy+A+202+1__LIG
     RDKit          3D

 14 14  0  0  0  0  0  0  0  0999 V2000
  -22.4600   -3.1550   29.0230 N   0  0  0  0  0  0  0  0  0  0  0  0
  -21.6430   -2.5230   29.8410 C   0  0  0  0  0  0  0  0  0  0  0  0
  -20.7990   -1.6310   29.1640 C   0  0  0  0  0  0  0  0  0  0  0  0
  -21.1350   -1.7540   27.8720 C   0  0  0  0  0  0  0  0  0  0  0  0
  -20.6590   -1.1240   26.6140 C   0  0  0  0  0  0  0  0  0  0  0  0
  -20.5250   -2.5570   31.9560 N   0  0  0  0  0  0  0  0  0  0  0  0
  -19.0640   -5.3900   34.6380 C   0  0  0  0  0  0  0  0  0  0  0  0
  -19.3500   -4.0070   34.9760 O   0  0  0  0  0  0  0  0  0  0  0  0
  -19.2450   -3.0880   34.0030 C   0  0  0  0  0  0  0  0  0  0  0  0
  -19.8490   -3.5880   32.7140 C   0  0  0  0  0  0  0  0  0  0  0  0
  -21.6560   -2.8200   31.2940 C   0  0  0  0  0  0  0  0  0  0  0  0
  -18.7470   -2.0030   34.1660 O   0  0  0  0  0  0  0  0  0  0  0  0
  -22.6530   -3.3020   31.8370 O   0  0  0  0  0  0  0  0  0  0  0  0
  -22.1290   -2.6580   27.7410 O   0  0  0  0  0  0  0  0  0  0  0  0
 14  1  1  0
 14  4  1  0
 12  9  2  0
  1  2  2  0
  6 10  1  0
  6 11  1  0
  4  5  1  0
  4  3  2  0
  9 10  1  0
  9  8  1  0
  2 11  1  0
  2  3  1  0
  7  8  1  0
 11 13  2  0
M  END
$$$$
