7goa_B_201_1_7gpw+B+202+1__LIG
     RDKit          3D

 13 14  0  0  0  0  0  0  0  0999 V2000
   -5.6280   -3.2020    5.9130 N   0  0  0  0  0  0  0  0  0  0  0  0
   -4.4040   -2.8580    6.1160 C   0  0  0  0  0  0  0  0  0  0  0  0
   -5.8450   -1.2940    7.2780 C   0  0  0  0  0  0  0  0  0  0  0  0
   -6.5600   -0.3410    7.9870 C   0  0  0  0  0  0  0  0  0  0  0  0
  -10.2570    0.4850    8.7160 O   0  0  0  0  0  0  0  0  0  0  0  0
   -8.8650    0.7830    8.8870 S   0  0  0  0  0  0  0  0  0  0  0  0
   -8.3270    0.8320   10.2140 O   0  0  0  0  0  0  0  0  0  0  0  0
   -8.5950    2.2130    8.2140 N   0  0  0  0  0  0  0  0  0  0  0  0
   -7.9430   -0.4300    7.9940 C   0  0  0  0  0  0  0  0  0  0  0  0
   -4.1290   -1.4600    7.1030 S   0  0  0  0  0  0  0  0  0  0  0  0
   -6.4860   -2.3200    6.5760 C   0  0  0  0  0  0  0  0  0  0  0  0
   -7.8790   -2.3910    6.6030 C   0  0  0  0  0  0  0  0  0  0  0  0
   -8.6070   -1.4470    7.3140 C   0  0  0  0  0  0  0  0  0  0  0  0
  2  1  2  0
  2 10  1  0
  1 11  1  0
 10  3  1  0
 11  3  2  0
 11 12  1  0
  3  4  1  0
 12 13  2  0
  8  6  1  0
  4  9  2  0
 13  9  1  0
  9  6  1  0
  6  7  2  0
  6  5  2  0
M  END
$$$$
