7gp9-a
     RDKit          3D

 16 17  0  0  0  0  0  0  0  0999 V2000
    0.6840   -0.0070   28.3420 C   0  0  0  0  0  0  0  0  0  0  0  0
    0.3670    1.2690   27.9040 C   0  0  0  0  0  0  0  0  0  0  0  0
   -0.8920    1.4700   27.3700 C   0  0  0  0  0  0  0  0  0  0  0  0
   -1.7910    0.4380   27.2630 C   0  0  0  0  0  0  0  0  0  0  0  0
   -1.4910   -0.8250   27.7220 C   0  0  0  0  0  0  0  0  0  0  0  0
   -0.9470   -2.9450   29.6400 N   0  0  0  0  0  0  0  0  0  0  0  0
   -2.1700   -0.3300   31.4160 C   0  0  0  0  0  0  0  0  0  0  0  0
    0.3340   -3.3310   31.7260 O   0  0  0  0  0  0  0  0  0  0  0  0
   -0.8360   -1.0060   31.6160 C   0  0  0  0  0  0  0  0  0  0  0  0
    0.1310   -2.4250   28.7870 C   0  0  0  0  0  0  0  0  0  0  0  0
   -0.2320   -1.0560   28.2710 C   0  0  0  0  0  0  0  0  0  0  0  0
   -2.7670    2.2810   26.4600 C   0  0  0  0  0  0  0  0  0  0  0  0
   -2.1420   -3.2780   31.7870 O   0  0  0  0  0  0  0  0  0  0  0  0
   -2.9180    0.8630   26.5970 O   0  0  0  0  0  0  0  0  0  0  0  0
   -1.4630    2.6420   26.9260 O   0  0  0  0  0  0  0  0  0  0  0  0
   -0.9030   -2.7580   31.2800 S   0  0  1  0  0  0  0  0  0  0  0  0
  2  1  2  0
  3  2  1  0
  4  3  2  0
  5  4  1  0
  9  7  1  0
 10  6  1  0
 11 10  1  0
 11  5  2  0
 11  1  1  0
 14 12  1  0
 14  4  1  0
 15 12  1  0
 15  3  1  0
 16 13  2  0
 16  9  1  6
 16  8  2  0
 16  6  1  0
M  END
>  <id>  (1) 
13

>  <inchikey>  (1) 
UKPLBUIFSDRLEZ-UHFFFAOYSA-N

>  <alias>  (1) 
7gp9-a

>  <smiles>  (1) 
CCS(=O)(=O)NCc1ccc2c(c1)OCO2

>  <path>  (1) 
/opt/xchem-fragalysis-2/maxwin/BulkDock/TARGETS/D68EV3C/aligned_files/7gp9-a/7gp9-a.pdb

>  <distance_score>  (1) 
None

>  <energy_score>  (1) 
None

>  <compound>  (1) 
UKPLBUIFSDRLEZ-UHFFFAOYSA-N

>  <compound_id>  (1) 
12

>  <target>  (1) 
D68EV3C

>  <tags>  (1) 
['[Other] upload_1 2025-02-11', 'hits', '[Other] iter1_frags']

>  <inspirations>  (1) 


>  <reference>  (1) 


>  <observation_longname>  (1) 
7gp9_A_201_v1

>  <ConformerSites alias>  (1) 
1a - 7gp9/A/201

>  <CanonSites alias>  (1) 
1 - 7gp9/A/201/1

>  <CrystalformSites alias>  (1) 
F2b - 7gp9/A/201/1

>  <Quatassemblies alias>  (1) 
A1 - monomer

>  <Crystalforms alias>  (1) 
F2 - EVD68_Reference_20230131

>  <ConformerSites upload name>  (1) 
1a - 7gp9/A/201

>  <CanonSites upload name>  (1) 
1 - 7gp9/A/201/1

>  <CrystalformSites upload name>  (1) 
F2b - 7gp9/A/201/1

>  <Quatassemblies upload name>  (1) 
A1 - monomer

>  <Crystalforms upload name>  (1) 
F2 - EVD68_Reference_20230131

>  <ConformerSites short tag>  (1) 
1a - 7gp9/A/201

>  <CanonSites short tag>  (1) 
1 - 7gp9/A/201/1

>  <CrystalformSites short tag>  (1) 
F2b - 7gp9/A/201/1

>  <Quatassemblies short tag>  (1) 
A1 - monomer

>  <Crystalforms short tag>  (1) 
F2 - EVD68_Reference_20230131

>  <Centroid res>  (1) 
7gp9/A/163/A_v1

>  <Experiment code>  (1) 
7gp9

>  <Pose>  (1) 
7gp9-a

$$$$
7gq4-a
     RDKit          3D

  6  6  0  0  0  0  0  0  0  0999 V2000
   -0.9690   -7.4160   34.7270 C   0  0  0  0  0  0  0  0  0  0  0  0
   -1.0210   -7.4860   33.2430 C   0  0  0  0  0  0  0  0  0  0  0  0
   -0.2370   -6.8170   32.4350 N   0  0  0  0  0  0  0  0  0  0  0  0
   -0.5580   -7.2160   31.1740 N   0  0  0  0  0  0  0  0  0  0  0  0
   -1.5080   -8.0900   31.1960 N   0  0  0  0  0  0  0  0  0  0  0  0
   -1.8210   -8.2680   32.4960 N   0  0  0  0  0  0  0  0  0  0  0  0
  2  1  1  0
  3  2  2  0
  4  3  1  0
  5  4  2  0
  6  5  1  0
  6  2  1  0
M  END
>  <id>  (2) 
25

>  <inchikey>  (2) 
XZGLNCKSNVGDNX-UHFFFAOYSA-N

>  <alias>  (2) 
7gq4-a

>  <smiles>  (2) 
Cc1nnn[nH]1

>  <path>  (2) 
/opt/xchem-fragalysis-2/maxwin/BulkDock/TARGETS/D68EV3C/aligned_files/7gq4-a/7gq4-a.pdb

>  <distance_score>  (2) 
None

>  <energy_score>  (2) 
None

>  <compound>  (2) 
XZGLNCKSNVGDNX-UHFFFAOYSA-N

>  <compound_id>  (2) 
20

>  <target>  (2) 
D68EV3C

>  <tags>  (2) 
['[Other] upload_1 2025-02-11', 'hits', '[Other] iter1_frags']

>  <inspirations>  (2) 


>  <reference>  (2) 


>  <observation_longname>  (2) 
7gq4_A_201_v1

>  <ConformerSites alias>  (2) 
1a - 7gp9/A/201

>  <CanonSites alias>  (2) 
1 - 7gp9/A/201/1

>  <CrystalformSites alias>  (2) 
F2b - 7gp9/A/201/1

>  <Quatassemblies alias>  (2) 
A1 - monomer

>  <Crystalforms alias>  (2) 
F2 - EVD68_Reference_20230131

>  <ConformerSites upload name>  (2) 
1a - 7gp9/A/201

>  <CanonSites upload name>  (2) 
1 - 7gp9/A/201/1

>  <CrystalformSites upload name>  (2) 
F2b - 7gp9/A/201/1

>  <Quatassemblies upload name>  (2) 
A1 - monomer

>  <Crystalforms upload name>  (2) 
F2 - EVD68_Reference_20230131

>  <ConformerSites short tag>  (2) 
1a - 7gp9/A/201

>  <CanonSites short tag>  (2) 
1 - 7gp9/A/201/1

>  <CrystalformSites short tag>  (2) 
F2b - 7gp9/A/201/1

>  <Quatassemblies short tag>  (2) 
A1 - monomer

>  <Crystalforms short tag>  (2) 
F2 - EVD68_Reference_20230131

>  <Centroid res>  (2) 
7gp9/A/163/A_v1

>  <Experiment code>  (2) 
7gq4

>  <Pose>  (2) 
7gq4-a

$$$$
7gok-a
     RDKit          3D

 12 13  0  0  0  0  0  0  0  0999 V2000
    1.2450   -7.0680   27.8270 C   0  0  0  0  0  0  0  0  0  0  0  0
   -1.3550   -5.4590   33.2780 N   0  0  0  0  0  0  0  0  0  0  0  0
   -0.7950   -6.3530   32.4720 C   0  0  0  0  0  0  0  0  0  0  0  0
   -0.7730   -7.5680   32.7280 O   0  0  0  0  0  0  0  0  0  0  0  0
   -0.1580   -5.8550   31.2080 C   0  0  0  0  0  0  0  0  0  0  0  0
    0.2360   -4.5140   31.0620 C   0  0  0  0  0  0  0  0  0  0  0  0
    0.8420   -4.0670   29.8980 C   0  0  0  0  0  0  0  0  0  0  0  0
    1.0730   -4.9820   28.8820 C   0  0  0  0  0  0  0  0  0  0  0  0
    1.6260   -4.7480   27.6310 N   0  0  0  0  0  0  0  0  0  0  0  0
    1.6000   -5.9510   26.8150 C   0  0  0  0  0  0  0  0  0  0  0  0
    0.7250   -6.3180   29.0150 C   0  0  0  0  0  0  0  0  0  0  0  0
    0.0840   -6.7500   30.1680 C   0  0  0  0  0  0  0  0  0  0  0  0
  3  2  1  0
  4  3  2  0
  5  3  1  0
  6  5  1  0
  7  6  2  0
  8  7  1  0
  9  8  1  0
 10  1  2  0
 10  9  1  0
 11  1  1  0
 11  8  2  0
 12 11  1  0
 12  5  2  0
M  END
>  <id>  (3) 
40

>  <inchikey>  (3) 
GQMYQEAXTITUAE-UHFFFAOYSA-N

>  <alias>  (3) 
7gok-a

>  <smiles>  (3) 
NC(=O)c1ccc2[nH]ccc2c1

>  <path>  (3) 
/opt/xchem-fragalysis-2/maxwin/BulkDock/TARGETS/D68EV3C/aligned_files/7gok-a/7gok-a.pdb

>  <distance_score>  (3) 
None

>  <energy_score>  (3) 
None

>  <compound>  (3) 
GQMYQEAXTITUAE-UHFFFAOYSA-N

>  <compound_id>  (3) 
32

>  <target>  (3) 
D68EV3C

>  <tags>  (3) 
['[Other] upload_1 2025-02-11', 'hits', '[Other] iter1_frags']

>  <inspirations>  (3) 


>  <reference>  (3) 


>  <observation_longname>  (3) 
7gok_A_202_v1

>  <ConformerSites alias>  (3) 
1a - 7gp9/A/201

>  <CanonSites alias>  (3) 
1 - 7gp9/A/201/1

>  <CrystalformSites alias>  (3) 
F2b - 7gp9/A/201/1

>  <Quatassemblies alias>  (3) 
A1 - monomer

>  <Crystalforms alias>  (3) 
F2 - EVD68_Reference_20230131

>  <ConformerSites upload name>  (3) 
1a - 7gp9/A/201

>  <CanonSites upload name>  (3) 
1 - 7gp9/A/201/1

>  <CrystalformSites upload name>  (3) 
F2b - 7gp9/A/201/1

>  <Quatassemblies upload name>  (3) 
A1 - monomer

>  <Crystalforms upload name>  (3) 
F2 - EVD68_Reference_20230131

>  <ConformerSites short tag>  (3) 
1a - 7gp9/A/201

>  <CanonSites short tag>  (3) 
1 - 7gp9/A/201/1

>  <CrystalformSites short tag>  (3) 
F2b - 7gp9/A/201/1

>  <Quatassemblies short tag>  (3) 
A1 - monomer

>  <Crystalforms short tag>  (3) 
F2 - EVD68_Reference_20230131

>  <Centroid res>  (3) 
7gp9/A/163/A_v1

>  <Experiment code>  (3) 
7gok

>  <Pose>  (3) 
7gok-a

$$$$
7gol-a
     RDKit          3D

 14 15  0  0  0  0  0  0  0  0999 V2000
   -1.7000   -8.3990   32.7160 N   0  0  0  0  0  0  0  0  0  0  0  0
    1.3220   -3.7530   34.6870 C   0  0  1  0  0  0  0  0  0  0  0  0
    0.3530   -4.9150   34.4910 C   0  0  0  0  0  0  0  0  0  0  0  0
   -0.3190   -6.6240   32.8600 C   0  0  0  0  0  0  0  0  0  0  0  0
   -1.1370   -7.4710   33.5270 C   0  0  0  0  0  0  0  0  0  0  0  0
    0.4530   -5.5440   33.2850 N   0  0  0  0  0  0  0  0  0  0  0  0
    3.2290   -5.5530   34.5670 C   0  0  0  0  0  0  0  0  0  0  0  0
    1.3360   -3.3200   36.0620 O   0  0  0  0  0  0  0  0  0  0  0  0
    2.7860   -4.1060   34.3450 C   0  0  2  0  0  0  0  0  0  0  0  0
    3.5370   -3.1020   35.2100 C   0  0  0  0  0  0  0  0  0  0  0  0
    2.6910   -3.0530   36.4580 C   0  0  0  0  0  0  0  0  0  0  0  0
   -1.3710   -8.3240   31.4750 N   0  0  0  0  0  0  0  0  0  0  0  0
   -0.4580   -5.2260   35.3610 O   0  0  0  0  0  0  0  0  0  0  0  0
   -0.3040   -7.0570   31.1990 S   0  0  0  0  0  0  0  0  0  0  0  0
  2  3  1  1
  5  4  2  0
  5  1  1  0
  6  4  1  0
  6  3  1  0
  8  2  1  0
  9  7  1  1
  9  2  1  0
 10  9  1  0
 11 10  1  0
 11  8  1  0
 12  1  2  0
 13  3  2  0
 14 12  1  0
 14  4  1  0
M  END
>  <id>  (4) 
41

>  <inchikey>  (4) 
OAYBAYPFIGUPDE-VDTYLAMSSA-N

>  <alias>  (4) 
7gol-a

>  <smiles>  (4) 
C[C@@H]1CCO[C@@H]1C(=O)Nc1cnns1

>  <path>  (4) 
/opt/xchem-fragalysis-2/maxwin/BulkDock/TARGETS/D68EV3C/aligned_files/7gol-a/7gol-a.pdb

>  <distance_score>  (4) 
None

>  <energy_score>  (4) 
None

>  <compound>  (4) 
OAYBAYPFIGUPDE-UHFFFAOYSA-N

>  <compound_id>  (4) 
33

>  <target>  (4) 
D68EV3C

>  <tags>  (4) 
['[Other] upload_1 2025-02-11', 'hits', '[Other] iter1_frags']

>  <inspirations>  (4) 


>  <reference>  (4) 


>  <observation_longname>  (4) 
7gol_A_201_v1

>  <ConformerSites alias>  (4) 
1a - 7gp9/A/201

>  <CanonSites alias>  (4) 
1 - 7gp9/A/201/1

>  <CrystalformSites alias>  (4) 
F2b - 7gp9/A/201/1

>  <Quatassemblies alias>  (4) 
A1 - monomer

>  <Crystalforms alias>  (4) 
F2 - EVD68_Reference_20230131

>  <ConformerSites upload name>  (4) 
1a - 7gp9/A/201

>  <CanonSites upload name>  (4) 
1 - 7gp9/A/201/1

>  <CrystalformSites upload name>  (4) 
F2b - 7gp9/A/201/1

>  <Quatassemblies upload name>  (4) 
A1 - monomer

>  <Crystalforms upload name>  (4) 
F2 - EVD68_Reference_20230131

>  <ConformerSites short tag>  (4) 
1a - 7gp9/A/201

>  <CanonSites short tag>  (4) 
1 - 7gp9/A/201/1

>  <CrystalformSites short tag>  (4) 
F2b - 7gp9/A/201/1

>  <Quatassemblies short tag>  (4) 
A1 - monomer

>  <Crystalforms short tag>  (4) 
F2 - EVD68_Reference_20230131

>  <Centroid res>  (4) 
7gp9/A/163/A_v1

>  <Experiment code>  (4) 
7gol

>  <Pose>  (4) 
7gol-a

$$$$
7gp2-a
     RDKit          3D

 11 11  0  0  0  0  0  0  0  0999 V2000
   -1.2210    1.4250   28.4530 N   0  0  0  0  0  0  0  0  0  0  0  0
   -1.7560    3.3480   26.3680 C   0  0  2  0  0  0  0  0  0  0  0  0
   -2.6070    2.1140   26.5440 C   0  0  0  0  0  0  0  0  0  0  0  0
   -1.7900    0.9890   27.1630 C   0  0  0  0  0  0  0  0  0  0  0  0
    0.5030   -0.6830   28.4890 C   0  0  0  0  0  0  0  0  0  0  0  0
   -0.6660    0.2330   29.4230 S   0  0  1  0  0  0  0  0  0  0  0  0
    0.0210    0.8620   30.5070 O   0  0  0  0  0  0  0  0  0  0  0  0
   -1.7780   -0.6160   29.7160 O   0  0  0  0  0  0  0  0  0  0  0  0
   -0.3730    2.6250   28.3190 C   0  0  0  0  0  0  0  0  0  0  0  0
   -1.1750    3.7640   27.7000 C   0  0  0  0  0  0  0  0  0  0  0  0
   -2.5260    4.4020   25.7890 O   0  0  0  0  0  0  0  0  0  0  0  0
  3  2  1  0
  4  3  1  0
  4  1  1  0
  6  5  1  6
  6  1  1  0
  7  6  2  0
  8  6  2  0
  9  1  1  0
 10  2  1  0
 10  9  1  0
  2 11  1  1
M  END
>  <id>  (5) 
44

>  <inchikey>  (5) 
UPEFDWJLNXWMOW-UHFFFAOYSA-N

>  <alias>  (5) 
7gp2-a

>  <smiles>  (5) 
CS(=O)(=O)N1CCC(O)CC1

>  <path>  (5) 
/opt/xchem-fragalysis-2/maxwin/BulkDock/TARGETS/D68EV3C/aligned_files/7gp2-a/7gp2-a.pdb

>  <distance_score>  (5) 
None

>  <energy_score>  (5) 
None

>  <compound>  (5) 
UPEFDWJLNXWMOW-UHFFFAOYSA-N

>  <compound_id>  (5) 
36

>  <target>  (5) 
D68EV3C

>  <tags>  (5) 
['[Other] upload_1 2025-02-11', 'hits', '[Other] iter1_frags']

>  <inspirations>  (5) 


>  <reference>  (5) 


>  <observation_longname>  (5) 
7gp2_A_201_v1

>  <ConformerSites alias>  (5) 
1a - 7gp9/A/201

>  <CanonSites alias>  (5) 
1 - 7gp9/A/201/1

>  <CrystalformSites alias>  (5) 
F2a - 7gox/A/201/1

>  <Quatassemblies alias>  (5) 
A1 - monomer

>  <Crystalforms alias>  (5) 
F2 - EVD68_Reference_20230131

>  <ConformerSites upload name>  (5) 
1a - 7gp9/A/201

>  <CanonSites upload name>  (5) 
1 - 7gp9/A/201/1

>  <CrystalformSites upload name>  (5) 
F2a - 7gox/A/201/1

>  <Quatassemblies upload name>  (5) 
A1 - monomer

>  <Crystalforms upload name>  (5) 
F2 - EVD68_Reference_20230131

>  <ConformerSites short tag>  (5) 
1a - 7gp9/A/201

>  <CanonSites short tag>  (5) 
1 - 7gp9/A/201/1

>  <CrystalformSites short tag>  (5) 
F2a - 7gox/A/201/1

>  <Quatassemblies short tag>  (5) 
A1 - monomer

>  <Crystalforms short tag>  (5) 
F2 - EVD68_Reference_20230131

>  <Centroid res>  (5) 
7gp9/A/163/A_v1

>  <Experiment code>  (5) 
7gp2

>  <Pose>  (5) 
7gp2-a

$$$$
7gpf-a
     RDKit          3D

 15 16  0  0  0  0  0  0  0  0999 V2000
   -1.1510    1.5180   26.9700 N   0  0  0  0  0  0  0  0  0  0  0  0
    1.9860    5.6130   26.5050 C   0  0  0  0  0  0  0  0  0  0  0  0
    1.9960    4.4330   27.2360 C   0  0  0  0  0  0  0  0  0  0  0  0
   -0.4440    3.9850   27.3090 C   0  0  0  0  0  0  0  0  0  0  0  0
   -1.3510    2.8350   27.5690 C   0  0  1  0  0  0  0  0  0  0  0  0
   -2.8160    3.1550   27.7470 C   0  0  0  0  0  0  0  0  0  0  0  0
   -2.5130    1.0360   26.6700 C   0  0  0  0  0  0  0  0  0  0  0  0
    0.8580    3.6690   27.4900 N   0  0  0  0  0  0  0  0  0  0  0  0
    5.5020    3.4760   27.5060 C   0  0  0  0  0  0  0  0  0  0  0  0
   -0.8930    5.0580   26.9140 O   0  0  0  0  0  0  0  0  0  0  0  0
    4.2820    4.2440   27.1140 C   0  0  0  0  0  0  0  0  0  0  0  0
    4.3590    5.3980   26.3370 C   0  0  0  0  0  0  0  0  0  0  0  0
    3.1970    6.0830   26.0360 C   0  0  0  0  0  0  0  0  0  0  0  0
   -3.4590    2.2470   26.7270 C   0  0  0  0  0  0  0  0  0  0  0  0
    3.1100    3.7730   27.5620 N   0  0  0  0  0  0  0  0  0  0  0  0
  3  2  2  0
  5  1  1  0
  5  4  1  6
  6  5  1  0
  7  1  1  0
  8  3  1  0
  8  4  1  0
 10  4  2  0
 11  9  1  0
 12 11  1  0
 13 12  2  0
 13  2  1  0
 14  7  1  0
 14  6  1  0
 15 11  2  0
 15  3  1  0
M  END
>  <id>  (6) 
53

>  <inchikey>  (6) 
QILVMVSMHKJUDZ-SECBINFHSA-N

>  <alias>  (6) 
7gpf-a

>  <smiles>  (6) 
Cc1cccc(NC(=O)[C@H]2CCCN2)n1

>  <path>  (6) 
/opt/xchem-fragalysis-2/maxwin/BulkDock/TARGETS/D68EV3C/aligned_files/7gpf-a/7gpf-a.pdb

>  <distance_score>  (6) 
None

>  <energy_score>  (6) 
None

>  <compound>  (6) 
QILVMVSMHKJUDZ-UHFFFAOYSA-N

>  <compound_id>  (6) 
44

>  <target>  (6) 
D68EV3C

>  <tags>  (6) 
['[Other] upload_1 2025-02-11', 'hits', '[Other] iter1_frags']

>  <inspirations>  (6) 


>  <reference>  (6) 


>  <observation_longname>  (6) 
7gpf_A_201_v1

>  <ConformerSites alias>  (6) 
1a - 7gp9/A/201

>  <CanonSites alias>  (6) 
1 - 7gp9/A/201/1

>  <CrystalformSites alias>  (6) 
F2a - 7gox/A/201/1

>  <Quatassemblies alias>  (6) 
A1 - monomer

>  <Crystalforms alias>  (6) 
F2 - EVD68_Reference_20230131

>  <ConformerSites upload name>  (6) 
1a - 7gp9/A/201

>  <CanonSites upload name>  (6) 
1 - 7gp9/A/201/1

>  <CrystalformSites upload name>  (6) 
F2a - 7gox/A/201/1

>  <Quatassemblies upload name>  (6) 
A1 - monomer

>  <Crystalforms upload name>  (6) 
F2 - EVD68_Reference_20230131

>  <ConformerSites short tag>  (6) 
1a - 7gp9/A/201

>  <CanonSites short tag>  (6) 
1 - 7gp9/A/201/1

>  <CrystalformSites short tag>  (6) 
F2a - 7gox/A/201/1

>  <Quatassemblies short tag>  (6) 
A1 - monomer

>  <Crystalforms short tag>  (6) 
F2 - EVD68_Reference_20230131

>  <Centroid res>  (6) 
7gp9/A/163/A_v1

>  <Experiment code>  (6) 
7gpf

>  <Pose>  (6) 
7gpf-a

$$$$
7gox-a
     RDKit          3D

 13 13  0  0  0  0  0  0  0  0999 V2000
    1.8900    4.0660   27.5100 N   0  0  0  0  0  0  0  0  0  0  0  0
    0.5530    3.6950   27.2490 C   0  0  0  0  0  0  0  0  0  0  0  0
   -0.4130    3.6300   28.2470 C   0  0  0  0  0  0  0  0  0  0  0  0
   -1.7100    3.2700   27.9180 C   0  0  0  0  0  0  0  0  0  0  0  0
   -2.0690    2.9670   26.6120 C   0  0  0  0  0  0  0  0  0  0  0  0
   -1.0960    3.0330   25.6270 C   0  0  0  0  0  0  0  0  0  0  0  0
   -3.4890    2.5950   26.2650 C   0  0  0  0  0  0  0  0  0  0  0  0
    4.5900    4.7060   28.3590 C   0  0  0  0  0  0  0  0  0  0  0  0
    4.0340    4.9970   26.9820 C   0  0  0  0  0  0  0  0  0  0  0  0
    2.5330    5.1210   26.9630 C   0  0  0  0  0  0  0  0  0  0  0  0
    1.9580    6.0720   26.4410 O   0  0  0  0  0  0  0  0  0  0  0  0
    0.2060    3.3950   25.9270 C   0  0  0  0  0  0  0  0  0  0  0  0
    1.1470    3.6120   24.9320 O   0  0  0  0  0  0  0  0  0  0  0  0
  2  1  1  0
  3  2  2  0
  4  3  1  0
  5  4  2  0
  6  5  1  0
  7  5  1  0
  9  8  1  0
 10  9  1  0
 10  1  1  0
 11 10  2  0
 12  6  2  0
 12  2  1  0
 13 12  1  0
M  END
>  <id>  (7) 
57

>  <inchikey>  (7) 
VFXXPGGIPBIYCC-UHFFFAOYSA-N

>  <alias>  (7) 
7gox-a

>  <smiles>  (7) 
CCC(=O)Nc1ccc(C)cc1O

>  <path>  (7) 
/opt/xchem-fragalysis-2/maxwin/BulkDock/TARGETS/D68EV3C/aligned_files/7gox-a/7gox-a.pdb

>  <distance_score>  (7) 
None

>  <energy_score>  (7) 
None

>  <compound>  (7) 
VFXXPGGIPBIYCC-UHFFFAOYSA-N

>  <compound_id>  (7) 
48

>  <target>  (7) 
D68EV3C

>  <tags>  (7) 
['[Other] upload_1 2025-02-11', 'hits', '[Other] iter1_frags']

>  <inspirations>  (7) 


>  <reference>  (7) 


>  <observation_longname>  (7) 
7gox_A_201_v1

>  <ConformerSites alias>  (7) 
1a - 7gp9/A/201

>  <CanonSites alias>  (7) 
1 - 7gp9/A/201/1

>  <CrystalformSites alias>  (7) 
F2a - 7gox/A/201/1

>  <Quatassemblies alias>  (7) 
A1 - monomer

>  <Crystalforms alias>  (7) 
F2 - EVD68_Reference_20230131

>  <ConformerSites upload name>  (7) 
1a - 7gp9/A/201

>  <CanonSites upload name>  (7) 
1 - 7gp9/A/201/1

>  <CrystalformSites upload name>  (7) 
F2a - 7gox/A/201/1

>  <Quatassemblies upload name>  (7) 
A1 - monomer

>  <Crystalforms upload name>  (7) 
F2 - EVD68_Reference_20230131

>  <ConformerSites short tag>  (7) 
1a - 7gp9/A/201

>  <CanonSites short tag>  (7) 
1 - 7gp9/A/201/1

>  <CrystalformSites short tag>  (7) 
F2a - 7gox/A/201/1

>  <Quatassemblies short tag>  (7) 
A1 - monomer

>  <Crystalforms short tag>  (7) 
F2 - EVD68_Reference_20230131

>  <Centroid res>  (7) 
7gp9/A/163/A_v1

>  <Experiment code>  (7) 
7gox

>  <Pose>  (7) 
7gox-a

$$$$
7goy-a
     RDKit          3D

 14 14  0  0  0  0  0  0  0  0999 V2000
   -1.1070    0.0340   31.3590 N   0  0  0  0  0  0  0  0  0  0  0  0
   -1.8670   -0.9920   31.0400 C   0  0  0  0  0  0  0  0  0  0  0  0
   -1.7140   -1.3620   29.6890 C   0  0  0  0  0  0  0  0  0  0  0  0
   -0.8050   -0.5060   29.1970 C   0  0  0  0  0  0  0  0  0  0  0  0
   -0.1370   -0.3500   27.8790 C   0  0  0  0  0  0  0  0  0  0  0  0
   -3.0260   -0.8940   33.1310 N   0  0  0  0  0  0  0  0  0  0  0  0
   -7.2220   -0.9230   35.3990 C   0  0  0  0  0  0  0  0  0  0  0  0
   -5.7760   -0.9880   35.4310 O   0  0  0  0  0  0  0  0  0  0  0  0
   -5.1420   -0.6870   34.3080 C   0  0  0  0  0  0  0  0  0  0  0  0
   -3.8330   -1.4120   34.2150 C   0  0  0  0  0  0  0  0  0  0  0  0
   -2.7340   -1.6350   32.0570 C   0  0  0  0  0  0  0  0  0  0  0  0
   -5.5530    0.0630   33.5040 O   0  0  0  0  0  0  0  0  0  0  0  0
   -3.1480   -2.7910   31.9080 O   0  0  0  0  0  0  0  0  0  0  0  0
   -0.4170    0.3530   30.1590 O   0  0  0  0  0  0  0  0  0  0  0  0
  2  1  2  0
  3  2  1  0
  4  3  2  0
  5  4  1  0
  8  7  1  0
  9  8  1  0
 10  9  1  0
 10  6  1  0
 11  2  1  0
 11  6  1  0
 12  9  2  0
 13 11  2  0
 14  4  1  0
 14  1  1  0
M  END
>  <id>  (8) 
59

>  <inchikey>  (8) 
FPAQMEYCJIMDCC-UHFFFAOYSA-N

>  <alias>  (8) 
7goy-a

>  <smiles>  (8) 
COC(=O)CNC(=O)c1cc(C)on1

>  <path>  (8) 
/opt/xchem-fragalysis-2/maxwin/BulkDock/TARGETS/D68EV3C/aligned_files/7goy-a/7goy-a.pdb

>  <distance_score>  (8) 
None

>  <energy_score>  (8) 
None

>  <compound>  (8) 
FPAQMEYCJIMDCC-UHFFFAOYSA-N

>  <compound_id>  (8) 
49

>  <target>  (8) 
D68EV3C

>  <tags>  (8) 
['[Other] upload_1 2025-02-11', 'hits', '[Other] iter1_frags']

>  <inspirations>  (8) 


>  <reference>  (8) 


>  <observation_longname>  (8) 
7goy_A_201_v1

>  <ConformerSites alias>  (8) 
1a - 7gp9/A/201

>  <CanonSites alias>  (8) 
1 - 7gp9/A/201/1

>  <CrystalformSites alias>  (8) 
F2b - 7gp9/A/201/1

>  <Quatassemblies alias>  (8) 
A1 - monomer

>  <Crystalforms alias>  (8) 
F2 - EVD68_Reference_20230131

>  <ConformerSites upload name>  (8) 
1a - 7gp9/A/201

>  <CanonSites upload name>  (8) 
1 - 7gp9/A/201/1

>  <CrystalformSites upload name>  (8) 
F2b - 7gp9/A/201/1

>  <Quatassemblies upload name>  (8) 
A1 - monomer

>  <Crystalforms upload name>  (8) 
F2 - EVD68_Reference_20230131

>  <ConformerSites short tag>  (8) 
1a - 7gp9/A/201

>  <CanonSites short tag>  (8) 
1 - 7gp9/A/201/1

>  <CrystalformSites short tag>  (8) 
F2b - 7gp9/A/201/1

>  <Quatassemblies short tag>  (8) 
A1 - monomer

>  <Crystalforms short tag>  (8) 
F2 - EVD68_Reference_20230131

>  <Centroid res>  (8) 
7gp9/A/163/A_v1

>  <Experiment code>  (8) 
7goy

>  <Pose>  (8) 
7goy-a

$$$$
7gpm-a
     RDKit          3D

 13 14  0  0  0  0  0  0  0  0999 V2000
   -1.9830    2.7580   28.0750 N   0  0  0  0  0  0  0  0  0  0  0  0
   -1.9390    1.6060   27.4720 C   0  0  0  0  0  0  0  0  0  0  0  0
   -1.7120    0.2830   28.1540 C   0  0  2  0  0  0  0  0  0  0  0  0
   -1.8210    0.3710   29.6820 C   0  0  0  0  0  0  0  0  0  0  0  0
   -0.4030    0.7020   30.1340 C   0  0  0  0  0  0  0  0  0  0  0  0
    0.4890    0.0140   29.1060 C   0  0  0  0  0  0  0  0  0  0  0  0
   -2.0140    1.6690   26.1060 N   0  0  0  0  0  0  0  0  0  0  0  0
   -1.3570    2.8430   23.4770 C   0  0  0  0  0  0  0  0  0  0  0  0
   -2.0730    3.6740   27.0040 O   0  0  0  0  0  0  0  0  0  0  0  0
   -2.0240    3.6470   24.5690 C   0  0  1  0  0  0  0  0  0  0  0  0
   -3.4180    4.0310   24.1490 C   0  0  0  0  0  0  0  0  0  0  0  0
   -2.0690    2.9380   25.8820 C   0  0  0  0  0  0  0  0  0  0  0  0
   -0.3650   -0.2580   27.9310 N   0  0  0  0  0  0  0  0  0  0  0  0
  2  1  2  0
  3  2  1  6
  4  3  1  0
  5  4  1  0
  6  5  1  0
  7  2  1  0
  9  1  1  0
 10  8  1  6
 11 10  1  0
 12 10  1  0
 12  9  1  0
 12  7  2  0
 13  6  1  0
 13  3  1  0
M  END
>  <id>  (9) 
70

>  <inchikey>  (9) 
WKTDGUSTKNDUEI-ZETCQYMHSA-N

>  <alias>  (9) 
7gpm-a

>  <smiles>  (9) 
CC(C)c1nc([C@@H]2CCCN2)no1

>  <path>  (9) 
/opt/xchem-fragalysis-2/maxwin/BulkDock/TARGETS/D68EV3C/aligned_files/7gpm-a/7gpm-a.pdb

>  <distance_score>  (9) 
None

>  <energy_score>  (9) 
None

>  <compound>  (9) 
WKTDGUSTKNDUEI-UHFFFAOYSA-N

>  <compound_id>  (9) 
56

>  <target>  (9) 
D68EV3C

>  <tags>  (9) 
['[Other] upload_1 2025-02-11', 'hits', '[Other] iter1_frags']

>  <inspirations>  (9) 


>  <reference>  (9) 


>  <observation_longname>  (9) 
7gpm_B_201_v1

>  <ConformerSites alias>  (9) 
1a - 7gp9/A/201

>  <CanonSites alias>  (9) 
1 - 7gp9/A/201/1

>  <CrystalformSites alias>  (9) 
F2d - 7gpm/B/201/1

>  <Quatassemblies alias>  (9) 
A1 - monomer

>  <Crystalforms alias>  (9) 
F2 - EVD68_Reference_20230131

>  <ConformerSites upload name>  (9) 
1a - 7gp9/A/201

>  <CanonSites upload name>  (9) 
1 - 7gp9/A/201/1

>  <CrystalformSites upload name>  (9) 
F2d - 7gpm/B/201/1

>  <Quatassemblies upload name>  (9) 
A1 - monomer

>  <Crystalforms upload name>  (9) 
F2 - EVD68_Reference_20230131

>  <ConformerSites short tag>  (9) 
1a - 7gp9/A/201

>  <CanonSites short tag>  (9) 
1 - 7gp9/A/201/1

>  <CrystalformSites short tag>  (9) 
F2d - 7gpm/B/201/1

>  <Quatassemblies short tag>  (9) 
A1 - monomer

>  <Crystalforms short tag>  (9) 
F2 - EVD68_Reference_20230131

>  <Centroid res>  (9) 
7gp9/A/163/A_v1

>  <Experiment code>  (9) 
7gpm

>  <Pose>  (9) 
7gpm-a

$$$$
7gqf-a
     RDKit          3D

 10 11  0  0  0  0  0  0  0  0999 V2000
   -1.4190   -8.1260   31.1110 N   0  0  0  0  0  0  0  0  0  0  0  0
   -0.2530   -6.8140   32.4920 N   0  0  0  0  0  0  0  0  0  0  0  0
    0.6230   -5.8280   34.4510 C   0  0  0  0  0  0  0  0  0  0  0  0
    0.6440   -5.9570   33.1050 C   0  0  0  0  0  0  0  0  0  0  0  0
    0.2560   -6.7270   30.1550 N   0  0  0  0  0  0  0  0  0  0  0  0
   -0.4570   -7.2170   31.1740 C   0  0  0  0  0  0  0  0  0  0  0  0
   -1.1810   -7.5560   33.2180 C   0  0  0  0  0  0  0  0  0  0  0  0
   -1.8830   -8.3430   32.4110 N   0  0  0  0  0  0  0  0  0  0  0  0
   -0.3160   -6.5540   35.2160 C   0  0  0  0  0  0  0  0  0  0  0  0
   -1.2030   -7.3980   34.6240 C   0  0  0  0  0  0  0  0  0  0  0  0
  4  2  1  0
  4  3  2  0
  6  5  1  0
  6  2  1  0
  6  1  2  0
  7  2  1  0
  8  1  1  0
  8  7  2  0
  9  3  1  0
 10  9  2  0
 10  7  1  0
M  END
>  <id>  (10) 
72

>  <inchikey>  (10) 
NCZQAIFOXJOCFI-UHFFFAOYSA-N

>  <alias>  (10) 
7gqf-a

>  <smiles>  (10) 
Nc1nnc2ccccn12

>  <path>  (10) 
/opt/xchem-fragalysis-2/maxwin/BulkDock/TARGETS/D68EV3C/aligned_files/7gqf-a/7gqf-a.pdb

>  <distance_score>  (10) 
None

>  <energy_score>  (10) 
None

>  <compound>  (10) 
NCZQAIFOXJOCFI-UHFFFAOYSA-N

>  <compound_id>  (10) 
58

>  <target>  (10) 
D68EV3C

>  <tags>  (10) 
['[Other] upload_1 2025-02-11', 'hits', '[Other] iter1_frags']

>  <inspirations>  (10) 


>  <reference>  (10) 


>  <observation_longname>  (10) 
7gqf_A_201_v1

>  <ConformerSites alias>  (10) 
1a - 7gp9/A/201

>  <CanonSites alias>  (10) 
1 - 7gp9/A/201/1

>  <CrystalformSites alias>  (10) 
F2b - 7gp9/A/201/1

>  <Quatassemblies alias>  (10) 
A1 - monomer

>  <Crystalforms alias>  (10) 
F2 - EVD68_Reference_20230131

>  <ConformerSites upload name>  (10) 
1a - 7gp9/A/201

>  <CanonSites upload name>  (10) 
1 - 7gp9/A/201/1

>  <CrystalformSites upload name>  (10) 
F2b - 7gp9/A/201/1

>  <Quatassemblies upload name>  (10) 
A1 - monomer

>  <Crystalforms upload name>  (10) 
F2 - EVD68_Reference_20230131

>  <ConformerSites short tag>  (10) 
1a - 7gp9/A/201

>  <CanonSites short tag>  (10) 
1 - 7gp9/A/201/1

>  <CrystalformSites short tag>  (10) 
F2b - 7gp9/A/201/1

>  <Quatassemblies short tag>  (10) 
A1 - monomer

>  <Crystalforms short tag>  (10) 
F2 - EVD68_Reference_20230131

>  <Centroid res>  (10) 
7gp9/A/163/A_v1

>  <Experiment code>  (10) 
7gqf

>  <Pose>  (10) 
7gqf-a

$$$$
7gqh-a
     RDKit          3D

 15 16  0  0  0  0  0  0  0  0999 V2000
   -1.3870   -7.6550   33.7650 C   0  0  0  0  0  0  0  0  0  0  0  0
    0.3530   -6.1180   37.8800 C   0  0  0  0  0  0  0  0  0  0  0  0
    0.2870   -5.8410   36.3950 C   0  0  1  0  0  0  0  0  0  0  0  0
   -0.3850   -4.5240   36.0700 C   0  0  0  0  0  0  0  0  0  0  0  0
    1.8450   -5.9550   34.5430 C   0  0  0  0  0  0  0  0  0  0  0  0
    0.7620   -6.5580   33.7710 C   0  0  0  0  0  0  0  0  0  0  0  0
    0.8470   -6.7210   32.3900 C   0  0  0  0  0  0  0  0  0  0  0  0
   -0.1780   -7.3690   31.7200 C   0  0  0  0  0  0  0  0  0  0  0  0
   -1.2950   -7.8480   32.3950 C   0  0  0  0  0  0  0  0  0  0  0  0
   -0.3610   -7.0260   34.4340 C   0  0  0  0  0  0  0  0  0  0  0  0
    1.6430   -5.8520   35.8880 O   0  0  0  0  0  0  0  0  0  0  0  0
    2.9020   -5.5660   34.1060 O   0  0  0  0  0  0  0  0  0  0  0  0
   -2.2570   -8.5200   31.7220 O   0  0  0  0  0  0  0  0  0  0  0  0
   -0.4680   -6.9210   35.8010 O   0  0  0  0  0  0  0  0  0  0  0  0
   -0.0440   -7.6220   29.8460 Br  0  0  0  0  0  0  0  0  0  0  0  0
  3  2  1  1
  4  3  1  0
  6  5  1  0
  7  6  1  0
  8  7  2  0
  9  8  1  0
  9  1  2  0
 10  6  2  0
 10  1  1  0
 11  5  1  0
 11  3  1  0
 12  5  2  0
 13  9  1  0
 14 10  1  0
 14  3  1  0
 15  8  1  0
M  END
>  <id>  (11) 
78

>  <inchikey>  (11) 
FOZVJTHORLMHQD-UHFFFAOYSA-N

>  <alias>  (11) 
7gqh-a

>  <smiles>  (11) 
CC1(C)OC(=O)c2cc(Br)c(O)cc2O1

>  <path>  (11) 
/opt/xchem-fragalysis-2/maxwin/BulkDock/TARGETS/D68EV3C/aligned_files/7gqh-a/7gqh-a.pdb

>  <distance_score>  (11) 
None

>  <energy_score>  (11) 
None

>  <compound>  (11) 
FOZVJTHORLMHQD-UHFFFAOYSA-N

>  <compound_id>  (11) 
63

>  <target>  (11) 
D68EV3C

>  <tags>  (11) 
['[Other] upload_1 2025-02-11', 'hits', '[Other] iter1_frags']

>  <inspirations>  (11) 


>  <reference>  (11) 


>  <observation_longname>  (11) 
7gqh_A_201_v1

>  <ConformerSites alias>  (11) 
1a - 7gp9/A/201

>  <CanonSites alias>  (11) 
1 - 7gp9/A/201/1

>  <CrystalformSites alias>  (11) 
F2b - 7gp9/A/201/1

>  <Quatassemblies alias>  (11) 
A1 - monomer

>  <Crystalforms alias>  (11) 
F2 - EVD68_Reference_20230131

>  <ConformerSites upload name>  (11) 
1a - 7gp9/A/201

>  <CanonSites upload name>  (11) 
1 - 7gp9/A/201/1

>  <CrystalformSites upload name>  (11) 
F2b - 7gp9/A/201/1

>  <Quatassemblies upload name>  (11) 
A1 - monomer

>  <Crystalforms upload name>  (11) 
F2 - EVD68_Reference_20230131

>  <ConformerSites short tag>  (11) 
1a - 7gp9/A/201

>  <CanonSites short tag>  (11) 
1 - 7gp9/A/201/1

>  <CrystalformSites short tag>  (11) 
F2b - 7gp9/A/201/1

>  <Quatassemblies short tag>  (11) 
A1 - monomer

>  <Crystalforms short tag>  (11) 
F2 - EVD68_Reference_20230131

>  <Centroid res>  (11) 
7gp9/A/163/A_v1

>  <Experiment code>  (11) 
7gqh

>  <Pose>  (11) 
7gqh-a

$$$$
7go2-a
     RDKit          3D

  9 10  0  0  0  0  0  0  0  0999 V2000
   -1.8520   -8.3030   32.2300 N   0  0  0  0  0  0  0  0  0  0  0  0
   -0.1540   -6.8920   32.3300 N   0  0  0  0  0  0  0  0  0  0  0  0
    0.7610   -6.0670   32.9740 C   0  0  0  0  0  0  0  0  0  0  0  0
   -1.3510   -8.0960   30.9450 N   0  0  0  0  0  0  0  0  0  0  0  0
   -0.3540   -7.2590   31.0340 C   0  0  0  0  0  0  0  0  0  0  0  0
   -1.1250   -7.5670   33.0620 C   0  0  0  0  0  0  0  0  0  0  0  0
   -1.1310   -7.3510   34.4660 C   0  0  0  0  0  0  0  0  0  0  0  0
    0.6690   -5.9420   34.3130 C   0  0  0  0  0  0  0  0  0  0  0  0
   -0.2780   -6.5710   35.0830 N   0  0  0  0  0  0  0  0  0  0  0  0
  3  2  1  0
  4  1  1  0
  5  4  2  0
  5  2  1  0
  6  2  1  0
  6  1  2  0
  7  6  1  0
  8  3  2  0
  9  8  1  0
  9  7  2  0
M  END
>  <id>  (12) 
105

>  <inchikey>  (12) 
NVSPJDGXKBDYIZ-UHFFFAOYSA-N

>  <alias>  (12) 
7go2-a

>  <smiles>  (12) 
c1cn2cnnc2cn1

>  <path>  (12) 
/opt/xchem-fragalysis-2/maxwin/BulkDock/TARGETS/D68EV3C/aligned_files/7go2-a/7go2-a.pdb

>  <distance_score>  (12) 
None

>  <energy_score>  (12) 
None

>  <compound>  (12) 
NVSPJDGXKBDYIZ-UHFFFAOYSA-N

>  <compound_id>  (12) 
87

>  <target>  (12) 
D68EV3C

>  <tags>  (12) 
['[Other] upload_1 2025-02-11', 'hits', '[Other] iter1_frags']

>  <inspirations>  (12) 


>  <reference>  (12) 


>  <observation_longname>  (12) 
7go2_A_201_v1

>  <ConformerSites alias>  (12) 
1a - 7gp9/A/201

>  <CanonSites alias>  (12) 
1 - 7gp9/A/201/1

>  <CrystalformSites alias>  (12) 
F2b - 7gp9/A/201/1

>  <Quatassemblies alias>  (12) 
A1 - monomer

>  <Crystalforms alias>  (12) 
F2 - EVD68_Reference_20230131

>  <ConformerSites upload name>  (12) 
1a - 7gp9/A/201

>  <CanonSites upload name>  (12) 
1 - 7gp9/A/201/1

>  <CrystalformSites upload name>  (12) 
F2b - 7gp9/A/201/1

>  <Quatassemblies upload name>  (12) 
A1 - monomer

>  <Crystalforms upload name>  (12) 
F2 - EVD68_Reference_20230131

>  <ConformerSites short tag>  (12) 
1a - 7gp9/A/201

>  <CanonSites short tag>  (12) 
1 - 7gp9/A/201/1

>  <CrystalformSites short tag>  (12) 
F2b - 7gp9/A/201/1

>  <Quatassemblies short tag>  (12) 
A1 - monomer

>  <Crystalforms short tag>  (12) 
F2 - EVD68_Reference_20230131

>  <Centroid res>  (12) 
7gp9/A/163/A_v1

>  <Experiment code>  (12) 
7go2

>  <Pose>  (12) 
7go2-a

$$$$
7gpk-a
     RDKit          3D

 13 14  0  0  0  0  0  0  0  0999 V2000
   -4.9440   -0.2230   33.5090 C   0  0  0  0  0  0  0  0  0  0  0  0
   -4.7000   -1.6960   33.7060 C   0  0  1  0  0  0  0  0  0  0  0  0
   -4.6170   -2.0090   35.1790 C   0  0  0  0  0  0  0  0  0  0  0  0
   -5.2290   -0.8850   36.0070 C   0  0  0  0  0  0  0  0  0  0  0  0
   -7.1680    0.5450   36.3250 C   0  0  0  0  0  0  0  0  0  0  0  0
   -8.4380    0.0600   36.9780 C   0  0  0  0  0  0  0  0  0  0  0  0
   -9.0250    0.6410   38.1460 C   0  0  0  0  0  0  0  0  0  0  0  0
  -10.1990    0.0410   38.5260 C   0  0  0  0  0  0  0  0  0  0  0  0
   -9.1870   -0.9790   36.4970 C   0  0  0  0  0  0  0  0  0  0  0  0
   -6.2790    0.1890   34.1130 C   0  0  0  0  0  0  0  0  0  0  0  0
   -6.5080   -0.4170   35.4350 N   0  0  0  0  0  0  0  0  0  0  0  0
   -5.7610   -2.4380   33.1170 O   0  0  0  0  0  0  0  0  0  0  0  0
  -10.5850   -1.2610   37.4330 S   0  0  0  0  0  0  0  0  0  0  0  0
  2  1  1  0
  3  2  1  0
  4  3  1  0
  6  5  1  0
  7  6  1  0
  8  7  2  0
  9  6  2  0
 10  1  1  0
 11 10  1  0
 11  5  1  0
 11  4  1  0
  2 12  1  1
 13  9  1  0
 13  8  1  0
M  END
>  <id>  (13) 
121

>  <inchikey>  (13) 
JQJVNJKLFUBEBG-UHFFFAOYSA-N

>  <alias>  (13) 
7gpk-a

>  <smiles>  (13) 
OC1CCN(Cc2ccsc2)CC1

>  <path>  (13) 
/opt/xchem-fragalysis-2/maxwin/BulkDock/TARGETS/D68EV3C/aligned_files/7gpk-a/7gpk-a.pdb

>  <distance_score>  (13) 
None

>  <energy_score>  (13) 
None

>  <compound>  (13) 
JQJVNJKLFUBEBG-UHFFFAOYSA-N

>  <compound_id>  (13) 
99

>  <target>  (13) 
D68EV3C

>  <tags>  (13) 
['[Other] upload_1 2025-02-11', 'hits', '[Other] iter1_frags']

>  <inspirations>  (13) 


>  <reference>  (13) 


>  <observation_longname>  (13) 
7gpk_B_202_v1

>  <ConformerSites alias>  (13) 
1a - 7gp9/A/201

>  <CanonSites alias>  (13) 
1 - 7gp9/A/201/1

>  <CrystalformSites alias>  (13) 
F2c - 7gpk/B/202/1

>  <Quatassemblies alias>  (13) 
A1 - monomer

>  <Crystalforms alias>  (13) 
F2 - EVD68_Reference_20230131

>  <ConformerSites upload name>  (13) 
1a - 7gp9/A/201

>  <CanonSites upload name>  (13) 
1 - 7gp9/A/201/1

>  <CrystalformSites upload name>  (13) 
F2c - 7gpk/B/202/1

>  <Quatassemblies upload name>  (13) 
A1 - monomer

>  <Crystalforms upload name>  (13) 
F2 - EVD68_Reference_20230131

>  <ConformerSites short tag>  (13) 
1a - 7gp9/A/201

>  <CanonSites short tag>  (13) 
1 - 7gp9/A/201/1

>  <CrystalformSites short tag>  (13) 
F2c - 7gpk/B/202/1

>  <Quatassemblies short tag>  (13) 
A1 - monomer

>  <Crystalforms short tag>  (13) 
F2 - EVD68_Reference_20230131

>  <Centroid res>  (13) 
7gp9/A/163/A_v1

>  <Experiment code>  (13) 
7gpk

>  <Pose>  (13) 
7gpk-a

$$$$
B0436a
     RDKit          3D

 21 23  0  0  0  0  0  0  0  0999 V2000
    2.5550    1.2040   35.1450 N   0  0  0  0  0  0  0  0  0  0  0  0
    2.4470    2.4700   35.8470 C   0  0  0  0  0  0  0  0  0  0  0  0
    3.8150    1.7910   33.3850 O   0  0  0  0  0  0  0  0  0  0  0  0
    3.5000    0.9670   34.2420 C   0  0  0  0  0  0  0  0  0  0  0  0
   -0.5440   -6.9450   31.3470 C   0  0  0  0  0  0  0  0  0  0  0  0
   -1.3610   -7.5380   33.2920 C   0  0  0  0  0  0  0  0  0  0  0  0
    0.2450   -5.5590   33.1780 C   0  0  0  0  0  0  0  0  0  0  0  0
    1.8340   -2.4560   32.1770 C   0  0  0  0  0  0  0  0  0  0  0  0
    2.5820   -1.4000   32.6640 C   0  0  0  0  0  0  0  0  0  0  0  0
    4.1830   -0.3840   34.3360 C   0  0  0  0  0  0  0  0  0  0  0  0
    3.3490   -1.5330   33.8130 C   0  0  0  0  0  0  0  0  0  0  0  0
    3.3510   -2.7600   34.4600 C   0  0  0  0  0  0  0  0  0  0  0  0
    2.6010   -3.8220   33.9820 C   0  0  0  0  0  0  0  0  0  0  0  0
    1.8270   -3.6850   32.8320 C   0  0  0  0  0  0  0  0  0  0  0  0
    1.0010   -4.8110   32.3340 C   0  0  0  0  0  0  0  0  0  0  0  0
    0.9850   -5.1510   30.9370 C   0  0  0  0  0  0  0  0  0  0  0  0
    0.2460   -6.1770   30.4510 C   0  0  0  0  0  0  0  0  0  0  0  0
   -1.3510   -7.9780   31.1400 N   0  0  0  0  0  0  0  0  0  0  0  0
   -1.8720   -8.3530   32.3780 N   0  0  0  0  0  0  0  0  0  0  0  0
   -1.5820   -7.5670   34.6120 N   0  0  0  0  0  0  0  0  0  0  0  0
   -0.5130   -6.6100   32.6980 N   0  0  0  0  0  0  0  0  0  0  0  0
  2  1  1  0
  4  3  2  0
  4  1  1  0
  9  8  2  0
 10  4  1  0
 11  9  1  0
 11 10  1  0
 12 11  2  0
 13 12  1  0
 14  8  1  0
 14 13  2  0
 15  7  2  0
 15 14  1  0
 16 15  1  0
 17  5  1  0
 17 16  2  0
 18  5  2  0
 19 18  1  0
 19  6  2  0
 20  6  1  0
 21  5  1  0
 21  7  1  0
 21  6  1  0
M  END
>  <id>  (14) 
128

>  <inchikey>  (14) 
RWCBDYVITSXUHF-UHFFFAOYSA-N

>  <alias>  (14) 
B0436a

>  <smiles>  (14) 
CNC(=O)Cc1ccc(-c2ccc3nnc(N)n3c2)cc1

>  <path>  (14) 
/opt/xchem-fragalysis-2/maxwin/BulkDock/TARGETS/D68EV3C/aligned_files/B0436a/B0436a.pdb

>  <distance_score>  (14) 
None

>  <energy_score>  (14) 
None

>  <compound>  (14) 
RWCBDYVITSXUHF-UHFFFAOYSA-N

>  <compound_id>  (14) 
105

>  <target>  (14) 
D68EV3C

>  <tags>  (14) 
['[Other] upload_1 2025-02-11', 'hits', '[Other] iter1_frags']

>  <inspirations>  (14) 


>  <reference>  (14) 


>  <observation_longname>  (14) 
D68EV3CPROB-x0436_B_301_v1

>  <ConformerSites alias>  (14) 
1a - 7gp9/A/201

>  <CanonSites alias>  (14) 
1 - 7gp9/A/201/1

>  <CrystalformSites alias>  (14) 
F1e - 0436/B/301

>  <Quatassemblies alias>  (14) 
A1 - monomer

>  <Crystalforms alias>  (14) 
F1 - D68_3C_PROB

>  <ConformerSites upload name>  (14) 
1a - 7gp9/A/201

>  <CanonSites upload name>  (14) 
1 - 7gp9/A/201/1

>  <CrystalformSites upload name>  (14) 
F1e - D68EV3CPROB-x0436/B/301/1

>  <Quatassemblies upload name>  (14) 
A1 - monomer

>  <Crystalforms upload name>  (14) 
F1 - D68_3C_PROB

>  <ConformerSites short tag>  (14) 
1a - 7gp9/A/201

>  <CanonSites short tag>  (14) 
1 - 7gp9/A/201/1

>  <CrystalformSites short tag>  (14) 
F1e - 0436/B/301

>  <Quatassemblies short tag>  (14) 
A1 - monomer

>  <Crystalforms short tag>  (14) 
F1 - D68_3C_PROB

>  <Centroid res>  (14) 
7gp9/A/163/A_v1

>  <Experiment code>  (14) 
D68EV3CPROB-x0436

>  <Pose>  (14) 
B0436a

$$$$
B0439a
     RDKit          3D

 21 23  0  0  0  0  0  0  0  0999 V2000
    4.2060   -2.6230   34.9930 N   0  0  0  0  0  0  0  0  0  0  0  0
    2.5070   -3.8810   36.6750 C   0  0  0  0  0  0  0  0  0  0  0  0
    4.9430   -3.2400   37.2620 O   0  0  0  0  0  0  0  0  0  0  0  0
    3.4540   -2.6970   33.7790 C   0  0  0  0  0  0  0  0  0  0  0  0
   -1.3780   -7.5220   33.2990 C   0  0  0  0  0  0  0  0  0  0  0  0
    0.3150   -5.6340   32.9380 C   0  0  0  0  0  0  0  0  0  0  0  0
    2.6610   -3.8030   33.4690 C   0  0  0  0  0  0  0  0  0  0  0  0
    3.4860   -1.6070   32.9150 C   0  0  0  0  0  0  0  0  0  0  0  0
    2.7320   -1.6240   31.7550 C   0  0  0  0  0  0  0  0  0  0  0  0
    1.9440   -2.7200   31.4490 C   0  0  0  0  0  0  0  0  0  0  0  0
    1.8970   -3.8200   32.3030 C   0  0  0  0  0  0  0  0  0  0  0  0
    1.0430   -4.9930   31.9870 C   0  0  0  0  0  0  0  0  0  0  0  0
    0.9320   -5.4580   30.6280 C   0  0  0  0  0  0  0  0  0  0  0  0
    0.1240   -6.4850   30.2790 C   0  0  0  0  0  0  0  0  0  0  0  0
   -0.6450   -7.1310   31.2770 C   0  0  0  0  0  0  0  0  0  0  0  0
   -1.5070   -8.1330   31.1960 N   0  0  0  0  0  0  0  0  0  0  0  0
   -1.9740   -8.3820   32.4820 N   0  0  0  0  0  0  0  0  0  0  0  0
   -1.5500   -7.4230   34.6210 N   0  0  0  0  0  0  0  0  0  0  0  0
   -0.5180   -6.6870   32.5940 N   0  0  0  0  0  0  0  0  0  0  0  0
    4.5690   -4.9910   35.5690 O   0  0  0  0  0  0  0  0  0  0  0  0
    4.1790   -3.7510   36.1660 S   0  0  2  0  0  0  0  0  0  0  0  0
  4  1  1  0
  7  4  2  0
  8  4  1  0
  9  8  2  0
 10  9  1  0
 11 10  2  0
 11  7  1  0
 12  6  2  0
 12 11  1  0
 13 12  1  0
 14 13  2  0
 15 14  1  0
 16 15  2  0
 17 16  1  0
 17  5  2  0
 18  5  1  0
 19 15  1  0
 19  6  1  0
 19  5  1  0
 21 20  2  0
 21  3  2  0
 21  2  1  1
 21  1  1  0
M  END
>  <id>  (15) 
129

>  <inchikey>  (15) 
POMKRPOCZAWFPL-UHFFFAOYSA-N

>  <alias>  (15) 
B0439a

>  <smiles>  (15) 
CS(=O)(=O)Nc1cccc(-c2ccc3nnc(N)n3c2)c1

>  <path>  (15) 
/opt/xchem-fragalysis-2/maxwin/BulkDock/TARGETS/D68EV3C/aligned_files/B0439a/B0439a.pdb

>  <distance_score>  (15) 
None

>  <energy_score>  (15) 
None

>  <compound>  (15) 
POMKRPOCZAWFPL-UHFFFAOYSA-N

>  <compound_id>  (15) 
106

>  <target>  (15) 
D68EV3C

>  <tags>  (15) 
['[Other] upload_1 2025-02-11', 'hits', '[Other] iter1_frags']

>  <inspirations>  (15) 


>  <reference>  (15) 


>  <observation_longname>  (15) 
D68EV3CPROB-x0439_B_301_v1

>  <ConformerSites alias>  (15) 
1a - 7gp9/A/201

>  <CanonSites alias>  (15) 
1 - 7gp9/A/201/1

>  <CrystalformSites alias>  (15) 
F1e - 0436/B/301

>  <Quatassemblies alias>  (15) 
A1 - monomer

>  <Crystalforms alias>  (15) 
F1 - D68_3C_PROB

>  <ConformerSites upload name>  (15) 
1a - 7gp9/A/201

>  <CanonSites upload name>  (15) 
1 - 7gp9/A/201/1

>  <CrystalformSites upload name>  (15) 
F1e - D68EV3CPROB-x0436/B/301/1

>  <Quatassemblies upload name>  (15) 
A1 - monomer

>  <Crystalforms upload name>  (15) 
F1 - D68_3C_PROB

>  <ConformerSites short tag>  (15) 
1a - 7gp9/A/201

>  <CanonSites short tag>  (15) 
1 - 7gp9/A/201/1

>  <CrystalformSites short tag>  (15) 
F1e - 0436/B/301

>  <Quatassemblies short tag>  (15) 
A1 - monomer

>  <Crystalforms short tag>  (15) 
F1 - D68_3C_PROB

>  <Centroid res>  (15) 
7gp9/A/163/A_v1

>  <Experiment code>  (15) 
D68EV3CPROB-x0439

>  <Pose>  (15) 
B0439a

$$$$
B0446a
     RDKit          3D

 19 20  0  0  0  0  0  0  0  0999 V2000
   -0.8660   -2.7480   29.8220 N   0  0  0  0  0  0  0  0  0  0  0  0
    0.3320   -2.6860   28.9900 C   0  0  0  0  0  0  0  0  0  0  0  0
   -1.9890   -3.5900   31.6130 O   0  0  0  0  0  0  0  0  0  0  0  0
   -1.9740   -1.8900   29.3800 C   0  0  0  0  0  0  0  0  0  0  0  0
    0.7730   -6.0330   32.8410 C   0  0  0  0  0  0  0  0  0  0  0  0
   -1.1600   -7.6770   33.0230 C   0  0  0  0  0  0  0  0  0  0  0  0
   -0.4260   -7.3720   31.0330 C   0  0  0  0  0  0  0  0  0  0  0  0
   -1.5580   -0.4710   29.0590 C   0  0  0  0  0  0  0  0  0  0  0  0
   -0.8690    0.2980   29.9880 C   0  0  0  0  0  0  0  0  0  0  0  0
   -0.5200    1.6110   29.7010 C   0  0  0  0  0  0  0  0  0  0  0  0
   -0.8700    2.1760   28.4900 C   0  0  0  0  0  0  0  0  0  0  0  0
   -1.5610    1.4280   27.5630 C   0  0  0  0  0  0  0  0  0  0  0  0
   -1.8910    0.1080   27.8400 C   0  0  0  0  0  0  0  0  0  0  0  0
   -0.9560   -3.5150   30.9650 C   0  0  0  0  0  0  0  0  0  0  0  0
    0.3590   -4.5740   32.7270 C   0  0  0  0  0  0  0  0  0  0  0  0
    0.1430   -4.2040   31.3370 N   0  0  0  0  0  0  0  0  0  0  0  0
   -0.2440   -6.9810   32.3150 N   0  0  0  0  0  0  0  0  0  0  0  0
   -1.8720   -8.4410   32.2370 N   0  0  0  0  0  0  0  0  0  0  0  0
   -1.3950   -8.2460   30.9470 N   0  0  0  0  0  0  0  0  0  0  0  0
  2  1  1  0
  4  1  1  0
  8  4  1  0
  9  8  2  0
 10  9  1  0
 11 10  2  0
 12 11  1  0
 13 12  2  0
 13  8  1  0
 14  3  2  0
 14  1  1  0
 15  5  1  0
 16 14  1  0
 16 15  1  0
 17  7  1  0
 17  6  1  0
 17  5  1  0
 18  6  2  0
 19 18  1  0
 19  7  2  0
M  END
>  <id>  (16) 
130

>  <inchikey>  (16) 
DGXVCUCSXWHVSR-UHFFFAOYSA-N

>  <alias>  (16) 
B0446a

>  <smiles>  (16) 
CN(Cc1ccccc1)C(=O)NCCn1cnnc1

>  <path>  (16) 
/opt/xchem-fragalysis-2/maxwin/BulkDock/TARGETS/D68EV3C/aligned_files/B0446a/B0446a_hippo.pdb

>  <distance_score>  (16) 
None

>  <energy_score>  (16) 
None

>  <compound>  (16) 
DGXVCUCSXWHVSR-UHFFFAOYSA-N

>  <compound_id>  (16) 
107

>  <target>  (16) 
D68EV3C

>  <tags>  (16) 
['[Other] upload_1 2025-02-11', 'hits', '[Other] iter1_frags']

>  <inspirations>  (16) 


>  <reference>  (16) 


>  <observation_longname>  (16) 
D68EV3CPROB-x0446_A_209_v1

>  <ConformerSites alias>  (16) 
1a - 7gp9/A/201

>  <CanonSites alias>  (16) 
1 - 7gp9/A/201/1

>  <CrystalformSites alias>  (16) 
F1f - 0446/A/209

>  <Quatassemblies alias>  (16) 
A1 - monomer

>  <Crystalforms alias>  (16) 
F1 - D68_3C_PROB

>  <ConformerSites upload name>  (16) 
1a - 7gp9/A/201

>  <CanonSites upload name>  (16) 
1 - 7gp9/A/201/1

>  <CrystalformSites upload name>  (16) 
F1f - D68EV3CPROB-x0446/A/209/1

>  <Quatassemblies upload name>  (16) 
A1 - monomer

>  <Crystalforms upload name>  (16) 
F1 - D68_3C_PROB

>  <ConformerSites short tag>  (16) 
1a - 7gp9/A/201

>  <CanonSites short tag>  (16) 
1 - 7gp9/A/201/1

>  <CrystalformSites short tag>  (16) 
F1f - 0446/A/209

>  <Quatassemblies short tag>  (16) 
A1 - monomer

>  <Crystalforms short tag>  (16) 
F1 - D68_3C_PROB

>  <Centroid res>  (16) 
7gp9/A/163/A_v1

>  <Experiment code>  (16) 
D68EV3CPROB-x0446

>  <Pose>  (16) 
B0446a

$$$$
B0450a
     RDKit          3D

 20 22  0  0  0  0  0  0  0  0999 V2000
   -1.4050   -7.9820   31.0890 N   0  0  0  0  0  0  0  0  0  0  0  0
    6.2170   -1.1670   33.6830 C   0  0  0  0  0  0  0  0  0  0  0  0
    5.0690   -1.5100   34.4600 O   0  0  0  0  0  0  0  0  0  0  0  0
    4.1330   -2.3230   33.8800 C   0  0  0  0  0  0  0  0  0  0  0  0
    0.4450   -5.7930   33.1700 C   0  0  0  0  0  0  0  0  0  0  0  0
    2.9970   -4.4510   34.0090 C   0  0  0  0  0  0  0  0  0  0  0  0
    3.9380   -3.5690   34.5080 C   0  0  0  0  0  0  0  0  0  0  0  0
    5.4020   -5.0790   35.6500 C   0  0  0  0  0  0  0  0  0  0  0  0
    3.3870   -1.9910   32.7590 C   0  0  0  0  0  0  0  0  0  0  0  0
    2.4530   -2.8860   32.2660 C   0  0  0  0  0  0  0  0  0  0  0  0
    2.2490   -4.1200   32.8820 C   0  0  0  0  0  0  0  0  0  0  0  0
    1.2600   -5.0860   32.3450 C   0  0  0  0  0  0  0  0  0  0  0  0
    1.1710   -5.3550   30.9310 C   0  0  0  0  0  0  0  0  0  0  0  0
    0.3190   -6.2830   30.4240 C   0  0  0  0  0  0  0  0  0  0  0  0
   -0.5130   -7.0170   31.3060 C   0  0  0  0  0  0  0  0  0  0  0  0
   -1.3210   -7.6120   33.2510 C   0  0  0  0  0  0  0  0  0  0  0  0
   -1.9160   -8.3590   32.3280 N   0  0  0  0  0  0  0  0  0  0  0  0
   -1.5260   -7.6400   34.5750 N   0  0  0  0  0  0  0  0  0  0  0  0
   -0.4230   -6.7430   32.6670 N   0  0  0  0  0  0  0  0  0  0  0  0
    4.7330   -3.8180   35.5930 O   0  0  0  0  0  0  0  0  0  0  0  0
  3  2  1  0
  4  3  1  0
  7  6  1  0
  7  4  2  0
  9  4  1  0
 10  9  2  0
 11 10  1  0
 11  6  2  0
 12  5  2  0
 12 11  1  0
 13 12  1  0
 14 13  2  0
 15 14  1  0
 15  1  2  0
 17  1  1  0
 17 16  2  0
 18 16  1  0
 19 15  1  0
 19 16  1  0
 19  5  1  0
 20  8  1  0
 20  7  1  0
M  END
>  <id>  (17) 
132

>  <inchikey>  (17) 
WPZDOUWFJLYHBJ-UHFFFAOYSA-N

>  <alias>  (17) 
B0450a

>  <smiles>  (17) 
COc1ccc(-c2ccc3nnc(N)n3c2)cc1OC

>  <path>  (17) 
/opt/xchem-fragalysis-2/maxwin/BulkDock/TARGETS/D68EV3C/aligned_files/B0450a/B0450a.pdb

>  <distance_score>  (17) 
None

>  <energy_score>  (17) 
None

>  <compound>  (17) 
WPZDOUWFJLYHBJ-UHFFFAOYSA-N

>  <compound_id>  (17) 
108

>  <target>  (17) 
D68EV3C

>  <tags>  (17) 
['[Other] upload_1 2025-02-11', 'hits', '[Other] iter1_frags']

>  <inspirations>  (17) 


>  <reference>  (17) 


>  <observation_longname>  (17) 
D68EV3CPROB-x0450_A_209_v1

>  <ConformerSites alias>  (17) 
1a - 7gp9/A/201

>  <CanonSites alias>  (17) 
1 - 7gp9/A/201/1

>  <CrystalformSites alias>  (17) 
F1f - 0446/A/209

>  <Quatassemblies alias>  (17) 
A1 - monomer

>  <Crystalforms alias>  (17) 
F1 - D68_3C_PROB

>  <ConformerSites upload name>  (17) 
1a - 7gp9/A/201

>  <CanonSites upload name>  (17) 
1 - 7gp9/A/201/1

>  <CrystalformSites upload name>  (17) 
F1f - D68EV3CPROB-x0446/A/209/1

>  <Quatassemblies upload name>  (17) 
A1 - monomer

>  <Crystalforms upload name>  (17) 
F1 - D68_3C_PROB

>  <ConformerSites short tag>  (17) 
1a - 7gp9/A/201

>  <CanonSites short tag>  (17) 
1 - 7gp9/A/201/1

>  <CrystalformSites short tag>  (17) 
F1f - 0446/A/209

>  <Quatassemblies short tag>  (17) 
A1 - monomer

>  <Crystalforms short tag>  (17) 
F1 - D68_3C_PROB

>  <Centroid res>  (17) 
7gp9/A/163/A_v1

>  <Experiment code>  (17) 
D68EV3CPROB-x0450

>  <Pose>  (17) 
B0450a

$$$$
B0454a
     RDKit          3D

 17 18  0  0  0  0  0  0  0  0999 V2000
   -0.1360   -2.8360   32.7400 N   0  0  0  0  0  0  0  0  0  0  0  0
    1.0890   -2.5900   33.4840 C   0  0  0  0  0  0  0  0  0  0  0  0
   -1.6620   -4.1990   31.8530 O   0  0  0  0  0  0  0  0  0  0  0  0
   -0.9590   -1.6410   32.4380 C   0  0  0  0  0  0  0  0  0  0  0  0
   -0.5970   -6.9850   31.0220 C   0  0  0  0  0  0  0  0  0  0  0  0
   -1.2400   -7.3280   33.0350 C   0  0  0  0  0  0  0  0  0  0  0  0
   -0.8750   -1.1730   31.0020 C   0  0  0  0  0  0  0  0  0  0  0  0
   -1.3460   -1.9580   29.9560 C   0  0  0  0  0  0  0  0  0  0  0  0
   -1.2810   -1.5080   28.6480 C   0  0  0  0  0  0  0  0  0  0  0  0
   -0.7700   -0.2600   28.3690 C   0  0  0  0  0  0  0  0  0  0  0  0
   -0.3140    0.5350   29.3960 C   0  0  0  0  0  0  0  0  0  0  0  0
   -0.3550    0.0790   30.7020 C   0  0  0  0  0  0  0  0  0  0  0  0
   -0.5920   -4.0620   32.3960 C   0  0  0  0  0  0  0  0  0  0  0  0
    0.2330   -5.3070   32.7140 C   0  0  0  0  0  0  0  0  0  0  0  0
   -0.4700   -6.5150   32.2840 N   0  0  0  0  0  0  0  0  0  0  0  0
   -1.3990   -8.0140   30.9900 N   0  0  0  0  0  0  0  0  0  0  0  0
   -1.8130   -8.2420   32.2930 N   0  0  0  0  0  0  0  0  0  0  0  0
  2  1  1  0
  4  1  1  0
  7  4  1  0
  8  7  2  0
  9  8  1  0
 10  9  2  0
 11 10  1  0
 12 11  2  0
 12  7  1  0
 13  3  2  0
 13  1  1  0
 14 13  1  0
 15  5  1  0
 15  6  1  0
 15 14  1  0
 16  5  2  0
 17 16  1  0
 17  6  2  0
M  END
>  <id>  (18) 
134

>  <inchikey>  (18) 
AVTXWKNPLMOCII-UHFFFAOYSA-N

>  <alias>  (18) 
B0454a

>  <smiles>  (18) 
CN(Cc1ccccc1)C(=O)Cn1cnnc1

>  <path>  (18) 
/opt/xchem-fragalysis-2/maxwin/BulkDock/TARGETS/D68EV3C/aligned_files/B0454a/B0454a_hippo.pdb

>  <distance_score>  (18) 
None

>  <energy_score>  (18) 
None

>  <compound>  (18) 
AVTXWKNPLMOCII-UHFFFAOYSA-N

>  <compound_id>  (18) 
109

>  <target>  (18) 
D68EV3C

>  <tags>  (18) 
['[Other] upload_1 2025-02-11', 'hits', '[Other] iter1_frags']

>  <inspirations>  (18) 


>  <reference>  (18) 


>  <observation_longname>  (18) 
D68EV3CPROB-x0454_B_301_v1

>  <ConformerSites alias>  (18) 
1a - 7gp9/A/201

>  <CanonSites alias>  (18) 
1 - 7gp9/A/201/1

>  <CrystalformSites alias>  (18) 
F1e - 0436/B/301

>  <Quatassemblies alias>  (18) 
A1 - monomer

>  <Crystalforms alias>  (18) 
F1 - D68_3C_PROB

>  <ConformerSites upload name>  (18) 
1a - 7gp9/A/201

>  <CanonSites upload name>  (18) 
1 - 7gp9/A/201/1

>  <CrystalformSites upload name>  (18) 
F1e - D68EV3CPROB-x0436/B/301/1

>  <Quatassemblies upload name>  (18) 
A1 - monomer

>  <Crystalforms upload name>  (18) 
F1 - D68_3C_PROB

>  <ConformerSites short tag>  (18) 
1a - 7gp9/A/201

>  <CanonSites short tag>  (18) 
1 - 7gp9/A/201/1

>  <CrystalformSites short tag>  (18) 
F1e - 0436/B/301

>  <Quatassemblies short tag>  (18) 
A1 - monomer

>  <Crystalforms short tag>  (18) 
F1 - D68_3C_PROB

>  <Centroid res>  (18) 
7gp9/A/163/A_v1

>  <Experiment code>  (18) 
D68EV3CPROB-x0454

>  <Pose>  (18) 
B0454a

$$$$
B0455a
     RDKit          3D

 20 22  0  0  0  0  0  0  0  0999 V2000
    2.5750    0.7990   34.9910 N   0  0  0  0  0  0  0  0  0  0  0  0
    1.7770    0.0890   35.9740 C   0  0  0  0  0  0  0  0  0  0  0  0
    4.2300    0.6260   33.4930 O   0  0  0  0  0  0  0  0  0  0  0  0
    3.2090    0.1710   34.0010 C   0  0  0  0  0  0  0  0  0  0  0  0
   -1.4280   -7.5620   33.2780 C   0  0  0  0  0  0  0  0  0  0  0  0
    0.0970   -5.5340   33.0860 C   0  0  0  0  0  0  0  0  0  0  0  0
    1.2760   -2.3370   31.9260 C   0  0  0  0  0  0  0  0  0  0  0  0
    1.8430   -1.1510   32.3590 C   0  0  0  0  0  0  0  0  0  0  0  0
    2.6190   -1.1150   33.5140 C   0  0  0  0  0  0  0  0  0  0  0  0
    2.8280   -2.3020   34.2120 C   0  0  0  0  0  0  0  0  0  0  0  0
    2.2570   -3.4870   33.7820 C   0  0  0  0  0  0  0  0  0  0  0  0
    1.4650   -3.5210   32.6360 C   0  0  0  0  0  0  0  0  0  0  0  0
    0.8030   -4.7760   32.2100 C   0  0  0  0  0  0  0  0  0  0  0  0
    0.8280   -5.1890   30.8310 C   0  0  0  0  0  0  0  0  0  0  0  0
    0.1580   -6.2820   30.3940 C   0  0  0  0  0  0  0  0  0  0  0  0
   -0.5990   -7.0440   31.3190 C   0  0  0  0  0  0  0  0  0  0  0  0
   -1.3720   -8.1100   31.1530 N   0  0  0  0  0  0  0  0  0  0  0  0
   -1.9020   -8.4350   32.4000 N   0  0  0  0  0  0  0  0  0  0  0  0
   -1.6720   -7.5250   34.5930 N   0  0  0  0  0  0  0  0  0  0  0  0
   -0.5990   -6.6450   32.6530 N   0  0  0  0  0  0  0  0  0  0  0  0
  2  1  1  0
  4  3  2  0
  4  1  1  0
  8  7  2  0
  9  8  1  0
  9  4  1  0
 10  9  2  0
 11 10  1  0
 12  7  1  0
 12 11  2  0
 13  6  2  0
 13 12  1  0
 14 13  1  0
 15 14  2  0
 16 15  1  0
 17 16  2  0
 18 17  1  0
 18  5  2  0
 19  5  1  0
 20 16  1  0
 20  6  1  0
 20  5  1  0
M  END
>  <id>  (19) 
136

>  <inchikey>  (19) 
CKVYAEVDVNCGJD-UHFFFAOYSA-N

>  <alias>  (19) 
B0455a

>  <smiles>  (19) 
CNC(=O)c1ccc(-c2ccc3nnc(N)n3c2)cc1

>  <path>  (19) 
/opt/xchem-fragalysis-2/maxwin/BulkDock/TARGETS/D68EV3C/aligned_files/B0455a/B0455a.pdb

>  <distance_score>  (19) 
None

>  <energy_score>  (19) 
None

>  <compound>  (19) 
CKVYAEVDVNCGJD-UHFFFAOYSA-N

>  <compound_id>  (19) 
110

>  <target>  (19) 
D68EV3C

>  <tags>  (19) 
['[Other] upload_1 2025-02-11', 'hits', '[Other] iter1_frags']

>  <inspirations>  (19) 


>  <reference>  (19) 


>  <observation_longname>  (19) 
D68EV3CPROB-x0455_A_209_v1

>  <ConformerSites alias>  (19) 
1a - 7gp9/A/201

>  <CanonSites alias>  (19) 
1 - 7gp9/A/201/1

>  <CrystalformSites alias>  (19) 
F1e - 0436/B/301

>  <Quatassemblies alias>  (19) 
A1 - monomer

>  <Crystalforms alias>  (19) 
F1 - D68_3C_PROB

>  <ConformerSites upload name>  (19) 
1a - 7gp9/A/201

>  <CanonSites upload name>  (19) 
1 - 7gp9/A/201/1

>  <CrystalformSites upload name>  (19) 
F1e - D68EV3CPROB-x0436/B/301/1

>  <Quatassemblies upload name>  (19) 
A1 - monomer

>  <Crystalforms upload name>  (19) 
F1 - D68_3C_PROB

>  <ConformerSites short tag>  (19) 
1a - 7gp9/A/201

>  <CanonSites short tag>  (19) 
1 - 7gp9/A/201/1

>  <CrystalformSites short tag>  (19) 
F1e - 0436/B/301

>  <Quatassemblies short tag>  (19) 
A1 - monomer

>  <Crystalforms short tag>  (19) 
F1 - D68_3C_PROB

>  <Centroid res>  (19) 
7gp9/A/163/A_v1

>  <Experiment code>  (19) 
D68EV3CPROB-x0455

>  <Pose>  (19) 
B0455a

$$$$
B0525a
     RDKit          3D

 22 24  0  0  0  0  0  0  0  0999 V2000
   -0.3610   -6.6630   32.1840 N   0  0  0  0  0  0  0  0  0  0  0  0
   -0.2440   -4.2140   31.9860 C   0  0  0  0  0  0  0  0  0  0  0  0
   -1.4560   -4.1850   31.8380 O   0  0  0  0  0  0  0  0  0  0  0  0
    0.4400   -5.4840   32.4920 C   0  0  0  0  0  0  0  0  0  0  0  0
   -2.1000   -0.2260   27.3740 C   0  0  0  0  0  0  0  0  0  0  0  0
   -1.7300    1.1110   27.3890 C   0  0  0  0  0  0  0  0  0  0  0  0
   -2.5480    2.1430   26.6500 C   0  0  0  0  0  0  0  0  0  0  0  0
   -0.6080    1.4680   28.1250 C   0  0  0  0  0  0  0  0  0  0  0  0
    0.1120    0.5200   28.8320 C   0  0  0  0  0  0  0  0  0  0  0  0
   -0.0270   -1.9490   31.0860 C   0  0  0  0  0  0  0  0  0  0  0  0
   -0.6120   -7.1850   30.9650 C   0  0  0  0  0  0  0  0  0  0  0  0
   -1.0810   -7.4110   33.0440 C   0  0  0  0  0  0  0  0  0  0  0  0
    2.0010   -3.0400   31.8030 C   0  0  0  0  0  0  0  0  0  0  0  0
    2.6410   -2.8870   30.4280 C   0  0  0  0  0  0  0  0  0  0  0  0
    1.9920   -1.7510   29.6320 C   0  0  0  0  0  0  0  0  0  0  0  0
    0.4650   -1.8700   29.6410 C   0  0  2  0  0  0  0  0  0  0  0  0
   -0.2690   -0.8150   28.8320 C   0  0  0  0  0  0  0  0  0  0  0  0
   -1.3860   -1.1710   28.0880 C   0  0  0  0  0  0  0  0  0  0  0  0
   -1.4450   -8.1850   31.0540 N   0  0  0  0  0  0  0  0  0  0  0  0
   -1.7500   -8.3340   32.4050 N   0  0  0  0  0  0  0  0  0  0  0  0
    0.5410   -3.1560   31.6870 N   0  0  0  0  0  0  0  0  0  0  0  0
   -1.7800    3.2800   26.2610 O   0  0  0  0  0  0  0  0  0  0  0  0
  3  2  2  0
  4  1  1  0
  4  2  1  0
  6  5  2  0
  7  6  1  0
  8  6  1  0
  9  8  2  0
 11  1  1  0
 12  1  1  0
 14 13  1  0
 15 14  1  0
 16 15  1  0
 16 10  1  0
 16 17  1  1
 17  9  1  0
 18 17  2  0
 18  5  1  0
 19 11  2  0
 20 19  1  0
 20 12  2  0
 21 13  1  0
 21 10  1  0
 21  2  1  0
 22  7  1  0
M  END
>  <id>  (20) 
141

>  <inchikey>  (20) 
QDVBRKQJPHDTEK-HNNXBMFYSA-N

>  <alias>  (20) 
B0525a

>  <smiles>  (20) 
O=C(Cn1cnnc1)N1CCC[C@H](c2ccc(CO)cc2)C1

>  <path>  (20) 
/opt/xchem-fragalysis-2/maxwin/BulkDock/TARGETS/D68EV3C/aligned_files/B0525a/B0525a_hippo.pdb

>  <distance_score>  (20) 
None

>  <energy_score>  (20) 
None

>  <compound>  (20) 
QDVBRKQJPHDTEK-UHFFFAOYSA-N

>  <compound_id>  (20) 
115

>  <target>  (20) 
D68EV3C

>  <tags>  (20) 
['[Other] upload_1 2025-02-11', 'hits', '[Other] iter1_frags']

>  <inspirations>  (20) 


>  <reference>  (20) 


>  <observation_longname>  (20) 
D68EV3CPROB-x0525_A_209_v1

>  <ConformerSites alias>  (20) 
1a - 7gp9/A/201

>  <CanonSites alias>  (20) 
1 - 7gp9/A/201/1

>  <CrystalformSites alias>  (20) 
F1f - 0446/A/209

>  <Quatassemblies alias>  (20) 
A1 - monomer

>  <Crystalforms alias>  (20) 
F1 - D68_3C_PROB

>  <ConformerSites upload name>  (20) 
1a - 7gp9/A/201

>  <CanonSites upload name>  (20) 
1 - 7gp9/A/201/1

>  <CrystalformSites upload name>  (20) 
F1f - D68EV3CPROB-x0446/A/209/1

>  <Quatassemblies upload name>  (20) 
A1 - monomer

>  <Crystalforms upload name>  (20) 
F1 - D68_3C_PROB

>  <ConformerSites short tag>  (20) 
1a - 7gp9/A/201

>  <CanonSites short tag>  (20) 
1 - 7gp9/A/201/1

>  <CrystalformSites short tag>  (20) 
F1f - 0446/A/209

>  <Quatassemblies short tag>  (20) 
A1 - monomer

>  <Crystalforms short tag>  (20) 
F1 - D68_3C_PROB

>  <Centroid res>  (20) 
7gp9/A/163/A_v1

>  <Experiment code>  (20) 
D68EV3CPROB-x0525

>  <Pose>  (20) 
B0525a

$$$$
B0691a
     RDKit          3D

 22 25  0  0  0  0  0  0  0  0999 V2000
    0.2370   -5.8500   34.8320 N   0  0  0  0  0  0  0  0  0  0  0  0
    1.3360   -6.0070   37.0170 C   0  0  2  0  0  0  0  0  0  0  0  0
   -0.0540   -8.1010   36.1650 O   0  0  0  0  0  0  0  0  0  0  0  0
    1.4160   -6.7990   38.3020 C   0  0  0  0  0  0  0  0  0  0  0  0
    0.7070   -4.9470   32.6090 C   0  0  0  0  0  0  0  0  0  0  0  0
    0.6360   -5.1000   31.2080 C   0  0  0  0  0  0  0  0  0  0  0  0
   -0.1310   -6.0820   30.6520 C   0  0  0  0  0  0  0  0  0  0  0  0
   -0.8850   -6.9440   31.4810 C   0  0  0  0  0  0  0  0  0  0  0  0
   -1.5910   -7.7620   33.3790 C   0  0  0  0  0  0  0  0  0  0  0  0
    2.6130   -7.3900   38.6850 C   0  0  0  0  0  0  0  0  0  0  0  0
    2.6730   -8.2200   39.7930 C   0  0  0  0  0  0  0  0  0  0  0  0
    1.5440   -8.4600   40.5410 C   0  0  0  0  0  0  0  0  0  0  0  0
    0.3480   -7.8640   40.1870 C   0  0  0  0  0  0  0  0  0  0  0  0
    0.2830   -7.0390   39.0740 C   0  0  0  0  0  0  0  0  0  0  0  0
    0.3820   -4.8060   36.9890 C   0  0  0  0  0  0  0  0  0  0  0  0
   -0.1050   -4.6060   35.5590 C   0  0  0  0  0  0  0  0  0  0  0  0
    0.0060   -5.8030   33.4410 C   0  0  0  0  0  0  0  0  0  0  0  0
   -1.6460   -7.9910   31.2170 N   0  0  0  0  0  0  0  0  0  0  0  0
   -2.0800   -8.5100   32.4320 N   0  0  0  0  0  0  0  0  0  0  0  0
   -0.8110   -6.7710   32.8610 N   0  0  0  0  0  0  0  0  0  0  0  0
    2.1190   -7.6800   35.1020 O   0  0  0  0  0  0  0  0  0  0  0  0
    0.9230   -7.1620   35.7050 S   0  0  1  0  0  0  0  0  0  0  0  0
  2  4  1  1
  6  5  1  0
  7  6  2  0
  8  7  1  0
 10  4  2  0
 11 10  1  0
 12 11  2  0
 13 12  1  0
 14 13  2  0
 14  4  1  0
 15  2  1  0
 16  1  1  0
 16 15  1  0
 17  1  1  0
 17  5  2  0
 18  8  2  0
 19 18  1  0
 19  9  2  0
 20  8  1  0
 20 17  1  0
 20  9  1  0
 22 21  2  0
 22  3  2  0
 22  2  1  0
 22  1  1  6
M  END
>  <id>  (21) 
144

>  <inchikey>  (21) 
YWAUSXIRKVBYLY-ZDUSSCGKSA-N

>  <alias>  (21) 
B0691a

>  <smiles>  (21) 
O=S1(=O)[C@H](c2ccccc2)CCN1c1cccc2nncn12

>  <path>  (21) 
/opt/xchem-fragalysis-2/maxwin/BulkDock/TARGETS/D68EV3C/aligned_files/B0691a/B0691a.pdb

>  <distance_score>  (21) 
None

>  <energy_score>  (21) 
None

>  <compound>  (21) 
YWAUSXIRKVBYLY-UHFFFAOYSA-N

>  <compound_id>  (21) 
117

>  <target>  (21) 
D68EV3C

>  <tags>  (21) 
['[Other] upload_1 2025-02-11', 'hits', '[Other] iter1_frags']

>  <inspirations>  (21) 


>  <reference>  (21) 


>  <observation_longname>  (21) 
D68EV3CPROB-x0691_B_207_v1

>  <ConformerSites alias>  (21) 
1a - 7gp9/A/201

>  <CanonSites alias>  (21) 
1 - 7gp9/A/201/1

>  <CrystalformSites alias>  (21) 
F1e - 0436/B/301

>  <Quatassemblies alias>  (21) 
A1 - monomer

>  <Crystalforms alias>  (21) 
F1 - D68_3C_PROB

>  <ConformerSites upload name>  (21) 
1a - 7gp9/A/201

>  <CanonSites upload name>  (21) 
1 - 7gp9/A/201/1

>  <CrystalformSites upload name>  (21) 
F1e - D68EV3CPROB-x0436/B/301/1

>  <Quatassemblies upload name>  (21) 
A1 - monomer

>  <Crystalforms upload name>  (21) 
F1 - D68_3C_PROB

>  <ConformerSites short tag>  (21) 
1a - 7gp9/A/201

>  <CanonSites short tag>  (21) 
1 - 7gp9/A/201/1

>  <CrystalformSites short tag>  (21) 
F1e - 0436/B/301

>  <Quatassemblies short tag>  (21) 
A1 - monomer

>  <Crystalforms short tag>  (21) 
F1 - D68_3C_PROB

>  <Centroid res>  (21) 
7gp9/A/163/A_v1

>  <Experiment code>  (21) 
D68EV3CPROB-x0691

>  <Pose>  (21) 
B0691a

$$$$
B0723a
     RDKit          3D

 23 26  0  0  0  0  0  0  0  0999 V2000
   -1.8400   -1.3080   28.1090 N   0  0  0  0  0  0  0  0  0  0  0  0
   -1.6700    3.6290   26.6710 C   0  0  0  0  0  0  0  0  0  0  0  0
   -2.5350    2.5990   26.3530 C   0  0  0  0  0  0  0  0  0  0  0  0
    0.0940   -6.0600   34.5500 C   0  0  0  0  0  0  0  0  0  0  0  0
   -0.7780   -7.0730   34.2440 C   0  0  0  0  0  0  0  0  0  0  0  0
   -1.0260   -7.3900   32.8840 C   0  0  0  0  0  0  0  0  0  0  0  0
   -0.7490   -7.2230   30.7210 C   0  0  0  0  0  0  0  0  0  0  0  0
   -0.3360    2.1050   27.9570 C   0  0  0  0  0  0  0  0  0  0  0  0
   -0.5760    3.3830   27.4750 C   0  0  0  0  0  0  0  0  0  0  0  0
   -2.2980    1.3180   26.8230 C   0  0  0  0  0  0  0  0  0  0  0  0
   -1.1960    1.0560   27.6360 C   0  0  0  0  0  0  0  0  0  0  0  0
   -0.9960   -0.2950   28.1940 C   0  0  0  0  0  0  0  0  0  0  0  0
    0.0660   -2.1540   28.8290 C   0  0  0  0  0  0  0  0  0  0  0  0
    1.0920   -3.1420   29.3600 C   0  0  0  0  0  0  0  0  0  0  0  0
    1.2550   -4.9300   31.0930 C   0  0  0  0  0  0  0  0  0  0  0  0
    0.5310   -5.6110   32.2120 C   0  0  0  0  0  0  0  0  0  0  0  0
    0.7430   -5.3220   33.5250 C   0  0  0  0  0  0  0  0  0  0  0  0
   -1.1810   -2.4710   28.5090 N   0  0  0  0  0  0  0  0  0  0  0  0
    0.3930   -4.0420   30.3020 N   0  0  0  0  0  0  0  0  0  0  0  0
   -1.7730   -8.3220   32.2980 N   0  0  0  0  0  0  0  0  0  0  0  0
   -1.5790   -8.2070   30.9230 N   0  0  0  0  0  0  0  0  0  0  0  0
   -0.3630   -6.6580   31.9050 N   0  0  0  0  0  0  0  0  0  0  0  0
    0.1960   -0.8140   28.6280 N   0  0  0  0  0  0  0  0  0  0  0  0
  3  2  2  0
  5  4  2  0
  6  5  1  0
  9  2  1  0
  9  8  2  0
 10  3  1  0
 11 10  2  0
 11  8  1  0
 12 11  1  0
 12  1  2  0
 14 13  1  0
 16 15  1  0
 17 16  2  0
 17  4  1  0
 18 13  2  0
 18  1  1  0
 19 15  1  0
 19 14  1  0
 20  6  2  0
 21 20  1  0
 21  7  2  0
 22 16  1  0
 22  7  1  0
 22  6  1  0
 23 13  1  0
 23 12  1  0
M  END
>  <id>  (22) 
147

>  <inchikey>  (22) 
XEHZOMCBCLBNAD-UHFFFAOYSA-N

>  <alias>  (22) 
B0723a

>  <smiles>  (22) 
c1ccc(-c2nnc(CNCc3cccc4nncn34)[nH]2)cc1

>  <path>  (22) 
/opt/xchem-fragalysis-2/maxwin/BulkDock/TARGETS/D68EV3C/aligned_files/B0723a/B0723a.pdb

>  <distance_score>  (22) 
None

>  <energy_score>  (22) 
None

>  <compound>  (22) 
XEHZOMCBCLBNAD-UHFFFAOYSA-N

>  <compound_id>  (22) 
119

>  <target>  (22) 
D68EV3C

>  <tags>  (22) 
['[Other] upload_1 2025-02-11', 'hits', '[Other] iter1_frags']

>  <inspirations>  (22) 


>  <reference>  (22) 


>  <observation_longname>  (22) 
D68EV3CPROB-x0723_A_401_v1

>  <ConformerSites alias>  (22) 
1a - 7gp9/A/201

>  <CanonSites alias>  (22) 
1 - 7gp9/A/201/1

>  <CrystalformSites alias>  (22) 
F1f - 0446/A/209

>  <Quatassemblies alias>  (22) 
A1 - monomer

>  <Crystalforms alias>  (22) 
F1 - D68_3C_PROB

>  <ConformerSites upload name>  (22) 
1a - 7gp9/A/201

>  <CanonSites upload name>  (22) 
1 - 7gp9/A/201/1

>  <CrystalformSites upload name>  (22) 
F1f - D68EV3CPROB-x0446/A/209/1

>  <Quatassemblies upload name>  (22) 
A1 - monomer

>  <Crystalforms upload name>  (22) 
F1 - D68_3C_PROB

>  <ConformerSites short tag>  (22) 
1a - 7gp9/A/201

>  <CanonSites short tag>  (22) 
1 - 7gp9/A/201/1

>  <CrystalformSites short tag>  (22) 
F1f - 0446/A/209

>  <Quatassemblies short tag>  (22) 
A1 - monomer

>  <Crystalforms short tag>  (22) 
F1 - D68_3C_PROB

>  <Centroid res>  (22) 
7gp9/A/163/A_v1

>  <Experiment code>  (22) 
D68EV3CPROB-x0723

>  <Pose>  (22) 
B0723a

$$$$
B0738a
     RDKit          3D

 20 23  0  0  0  0  0  0  0  0999 V2000
    5.1460   -9.7160   36.7120 N   0  0  0  0  0  0  0  0  0  0  0  0
    5.0820   -9.7550   38.9290 C   0  0  0  0  0  0  0  0  0  0  0  0
    2.3260   -7.3770   36.6780 O   0  0  0  0  0  0  0  0  0  0  0  0
    5.7020  -10.2780   37.8250 C   0  0  0  0  0  0  0  0  0  0  0  0
   -1.3210   -7.7070   33.4480 C   0  0  0  0  0  0  0  0  0  0  0  0
    4.1120   -8.8390   38.4740 C   0  0  0  0  0  0  0  0  0  0  0  0
    4.1590   -8.8360   37.0830 C   0  0  0  0  0  0  0  0  0  0  0  0
    3.3220   -8.1590   36.1530 C   0  0  0  0  0  0  0  0  0  0  0  0
    1.6840   -6.9580   35.5550 C   0  0  0  0  0  0  0  0  0  0  0  0
    0.2650   -5.7560   33.8330 C   0  0  0  0  0  0  0  0  0  0  0  0
    0.9950   -4.8230   33.1710 C   0  0  0  0  0  0  0  0  0  0  0  0
    1.0650   -4.8500   31.7500 C   0  0  0  0  0  0  0  0  0  0  0  0
    0.3980   -5.8040   31.0250 C   0  0  0  0  0  0  0  0  0  0  0  0
   -0.3950   -6.7660   31.7000 C   0  0  0  0  0  0  0  0  0  0  0  0
    3.2940   -8.2030   34.8670 N   0  0  0  0  0  0  0  0  0  0  0  0
    2.2080   -7.4170   34.4740 N   0  0  0  0  0  0  0  0  0  0  0  0
   -1.1830   -7.7480   31.2710 N   0  0  0  0  0  0  0  0  0  0  0  0
   -1.7730   -8.3330   32.3950 N   0  0  0  0  0  0  0  0  0  0  0  0
   -0.4510   -6.7130   33.0920 N   0  0  0  0  0  0  0  0  0  0  0  0
    0.3100   -5.8750   35.5970 S   0  0  0  0  0  0  0  0  0  0  0  0
  4  1  1  0
  4  2  2  0
  6  2  1  0
  7  1  1  0
  7  6  2  0
  8  7  1  0
  8  3  1  0
  9  3  1  0
 11 10  2  0
 12 11  1  0
 13 12  2  0
 14 13  1  0
 15  8  2  0
 16 15  1  0
 16  9  2  0
 17 14  2  0
 18 17  1  0
 18  5  2  0
 19 14  1  0
 19 10  1  0
 19  5  1  0
 20 10  1  0
 20  9  1  0
M  END
>  <id>  (23) 
148

>  <inchikey>  (23) 
LJMUUEZBPOHHNK-UHFFFAOYSA-N

>  <alias>  (23) 
B0738a

>  <smiles>  (23) 
c1c[nH]c(-c2nnc(Sc3cccc4nncn34)o2)c1

>  <path>  (23) 
/opt/xchem-fragalysis-2/maxwin/BulkDock/TARGETS/D68EV3C/aligned_files/B0738a/B0738a.pdb

>  <distance_score>  (23) 
None

>  <energy_score>  (23) 
None

>  <compound>  (23) 
LJMUUEZBPOHHNK-UHFFFAOYSA-N

>  <compound_id>  (23) 
120

>  <target>  (23) 
D68EV3C

>  <tags>  (23) 
['[Other] upload_1 2025-02-11', 'hits', '[Other] iter1_frags']

>  <inspirations>  (23) 


>  <reference>  (23) 


>  <observation_longname>  (23) 
D68EV3CPROB-x0738_A_308_v1

>  <ConformerSites alias>  (23) 
1a - 7gp9/A/201

>  <CanonSites alias>  (23) 
1 - 7gp9/A/201/1

>  <CrystalformSites alias>  (23) 
F1f - 0446/A/209

>  <Quatassemblies alias>  (23) 
A1 - monomer

>  <Crystalforms alias>  (23) 
F1 - D68_3C_PROB

>  <ConformerSites upload name>  (23) 
1a - 7gp9/A/201

>  <CanonSites upload name>  (23) 
1 - 7gp9/A/201/1

>  <CrystalformSites upload name>  (23) 
F1f - D68EV3CPROB-x0446/A/209/1

>  <Quatassemblies upload name>  (23) 
A1 - monomer

>  <Crystalforms upload name>  (23) 
F1 - D68_3C_PROB

>  <ConformerSites short tag>  (23) 
1a - 7gp9/A/201

>  <CanonSites short tag>  (23) 
1 - 7gp9/A/201/1

>  <CrystalformSites short tag>  (23) 
F1f - 0446/A/209

>  <Quatassemblies short tag>  (23) 
A1 - monomer

>  <Crystalforms short tag>  (23) 
F1 - D68_3C_PROB

>  <Centroid res>  (23) 
7gp9/A/163/A_v1

>  <Experiment code>  (23) 
D68EV3CPROB-x0738

>  <Pose>  (23) 
B0738a

$$$$
B0742a
     RDKit          3D

 21 24  0  0  0  0  0  0  0  0999 V2000
   -1.4300   -5.2280   36.8940 N   0  0  0  0  0  0  0  0  0  0  0  0
   -1.0630   -7.1140   41.6710 C   0  0  0  0  0  0  0  0  0  0  0  0
   -0.1930   -7.8100   40.8580 C   0  0  0  0  0  0  0  0  0  0  0  0
   -0.6760   -6.7470   31.0970 C   0  0  0  0  0  0  0  0  0  0  0  0
   -1.2640   -7.8670   32.8800 C   0  0  0  0  0  0  0  0  0  0  0  0
   -1.5930   -5.6560   39.8390 C   0  0  0  0  0  0  0  0  0  0  0  0
   -1.7590   -6.0370   41.1640 C   0  0  0  0  0  0  0  0  0  0  0  0
   -0.0240   -7.4410   39.5330 C   0  0  0  0  0  0  0  0  0  0  0  0
   -0.7310   -6.3620   39.0060 C   0  0  0  0  0  0  0  0  0  0  0  0
   -0.6160   -6.0220   37.5750 C   0  0  0  0  0  0  0  0  0  0  0  0
    0.0160   -6.0940   35.5100 C   0  0  0  0  0  0  0  0  0  0  0  0
    0.4600   -6.0450   33.1220 C   0  0  0  0  0  0  0  0  0  0  0  0
    1.1110   -5.0390   32.4230 C   0  0  0  0  0  0  0  0  0  0  0  0
    0.8810   -4.9090   31.0380 C   0  0  0  0  0  0  0  0  0  0  0  0
    0.0190   -5.7430   30.3810 C   0  0  0  0  0  0  0  0  0  0  0  0
   -1.0230   -5.2780   35.5590 N   0  0  0  0  0  0  0  0  0  0  0  0
    0.7350   -6.4710   34.4190 N   0  0  0  0  0  0  0  0  0  0  0  0
   -1.5750   -7.6570   30.7370 N   0  0  0  0  0  0  0  0  0  0  0  0
   -1.9410   -8.3620   31.8840 N   0  0  0  0  0  0  0  0  0  0  0  0
   -0.4440   -6.8590   32.4600 N   0  0  0  0  0  0  0  0  0  0  0  0
    0.3190   -6.5670   36.7340 N   0  0  0  0  0  0  0  0  0  0  0  0
  3  2  2  0
  7  6  2  0
  7  2  1  0
  8  3  1  0
  9  8  2  0
  9  6  1  0
 10  9  1  0
 10  1  2  0
 13 12  2  0
 14 13  1  0
 15  4  1  0
 15 14  2  0
 16 11  2  0
 16  1  1  0
 17 12  1  0
 17 11  1  0
 18  4  2  0
 19 18  1  0
 19  5  2  0
 20  4  1  0
 20 12  1  0
 20  5  1  0
 21 11  1  0
 21 10  1  0
M  END
>  <id>  (24) 
150

>  <inchikey>  (24) 
DNEHZXPFMONSEW-UHFFFAOYSA-N

>  <alias>  (24) 
B0742a

>  <smiles>  (24) 
c1ccc(-c2nnc(Nc3cccc4nncn34)[nH]2)cc1

>  <path>  (24) 
/opt/xchem-fragalysis-2/maxwin/BulkDock/TARGETS/D68EV3C/aligned_files/B0742a/B0742a.pdb

>  <distance_score>  (24) 
None

>  <energy_score>  (24) 
None

>  <compound>  (24) 
DNEHZXPFMONSEW-UHFFFAOYSA-N

>  <compound_id>  (24) 
121

>  <target>  (24) 
D68EV3C

>  <tags>  (24) 
['[Other] upload_1 2025-02-11', 'hits', '[Other] iter1_frags']

>  <inspirations>  (24) 


>  <reference>  (24) 


>  <observation_longname>  (24) 
D68EV3CPROB-x0742_A_308_v1

>  <ConformerSites alias>  (24) 
1a - 7gp9/A/201

>  <CanonSites alias>  (24) 
1 - 7gp9/A/201/1

>  <CrystalformSites alias>  (24) 
F1e - 0436/B/301

>  <Quatassemblies alias>  (24) 
A1 - monomer

>  <Crystalforms alias>  (24) 
F1 - D68_3C_PROB

>  <ConformerSites upload name>  (24) 
1a - 7gp9/A/201

>  <CanonSites upload name>  (24) 
1 - 7gp9/A/201/1

>  <CrystalformSites upload name>  (24) 
F1e - D68EV3CPROB-x0436/B/301/1

>  <Quatassemblies upload name>  (24) 
A1 - monomer

>  <Crystalforms upload name>  (24) 
F1 - D68_3C_PROB

>  <ConformerSites short tag>  (24) 
1a - 7gp9/A/201

>  <CanonSites short tag>  (24) 
1 - 7gp9/A/201/1

>  <CrystalformSites short tag>  (24) 
F1e - 0436/B/301

>  <Quatassemblies short tag>  (24) 
A1 - monomer

>  <Crystalforms short tag>  (24) 
F1 - D68_3C_PROB

>  <Centroid res>  (24) 
7gp9/A/163/A_v1

>  <Experiment code>  (24) 
D68EV3CPROB-x0742

>  <Pose>  (24) 
B0742a

$$$$
B0805a
     RDKit          3D

 23 26  0  0  0  0  0  0  0  0999 V2000
    0.3130   -5.9250   34.9060 N   0  0  0  0  0  0  0  0  0  0  0  0
    1.8550   -6.3150   37.1350 C   0  0  2  0  0  0  0  0  0  0  0  0
    1.8360   -7.9180   35.0820 O   0  0  0  0  0  0  0  0  0  0  0  0
    2.3290   -7.3490   38.1320 C   0  0  0  0  0  0  0  0  0  0  0  0
    0.2210   -5.8950   33.5010 C   0  0  0  0  0  0  0  0  0  0  0  0
    0.9860   -5.0630   32.7010 C   0  0  0  0  0  0  0  0  0  0  0  0
    0.8940   -5.1740   31.2930 C   0  0  0  0  0  0  0  0  0  0  0  0
    0.0680   -6.0860   30.7040 C   0  0  0  0  0  0  0  0  0  0  0  0
   -0.7340   -6.9350   31.5080 C   0  0  0  0  0  0  0  0  0  0  0  0
   -1.5210   -7.7320   33.3870 C   0  0  0  0  0  0  0  0  0  0  0  0
    3.6630   -7.7250   38.1670 C   0  0  0  0  0  0  0  0  0  0  0  0
    4.0920   -8.7310   39.0190 C   0  0  0  0  0  0  0  0  0  0  0  0
    3.1970   -9.3630   39.8530 C   0  0  0  0  0  0  0  0  0  0  0  0
    1.8720   -8.9950   39.8350 C   0  0  0  0  0  0  0  0  0  0  0  0
    1.4390   -7.9880   38.9850 C   0  0  0  0  0  0  0  0  0  0  0  0
    1.0000   -5.1980   37.7330 C   0  0  0  0  0  0  0  0  0  0  0  0
    0.6470   -4.1780   36.6590 C   0  0  0  0  0  0  0  0  0  0  0  0
   -0.2880   -4.7850   35.6450 C   0  0  0  0  0  0  0  0  0  0  0  0
   -1.6050   -7.8950   31.2150 N   0  0  0  0  0  0  0  0  0  0  0  0
   -2.1020   -8.3910   32.4210 N   0  0  0  0  0  0  0  0  0  0  0  0
   -0.6450   -6.8080   32.8890 N   0  0  0  0  0  0  0  0  0  0  0  0
   -0.1940   -7.7970   36.4630 O   0  0  0  0  0  0  0  0  0  0  0  0
    0.9180   -7.1310   35.8520 S   0  0  2  0  0  0  0  0  0  0  0  0
  2  4  1  1
  5  1  1  0
  6  5  2  0
  7  6  1  0
  8  7  2  0
  9  8  1  0
 11  4  2  0
 12 11  1  0
 13 12  2  0
 14 13  1  0
 15  4  1  0
 15 14  2  0
 16  2  1  0
 17 16  1  0
 18  1  1  0
 18 17  1  0
 19  9  2  0
 20 19  1  0
 20 10  2  0
 21  9  1  0
 21 10  1  0
 21  5  1  0
 23 22  2  0
 23  3  2  0
 23  2  1  0
 23  1  1  6
M  END
>  <id>  (25) 
152

>  <inchikey>  (25) 
DPLORBPGZRNKJU-AWEZNQCLSA-N

>  <alias>  (25) 
B0805a

>  <smiles>  (25) 
O=S1(=O)[C@H](c2ccccc2)CCCN1c1cccc2nncn12

>  <path>  (25) 
/opt/xchem-fragalysis-2/maxwin/BulkDock/TARGETS/D68EV3C/aligned_files/B0805a/B0805a.pdb

>  <distance_score>  (25) 
None

>  <energy_score>  (25) 
None

>  <compound>  (25) 
DPLORBPGZRNKJU-UHFFFAOYSA-N

>  <compound_id>  (25) 
123

>  <target>  (25) 
D68EV3C

>  <tags>  (25) 
['[Other] upload_1 2025-02-11', 'hits', '[Other] iter1_frags']

>  <inspirations>  (25) 


>  <reference>  (25) 


>  <observation_longname>  (25) 
D68EV3CPROB-x0805_A_301_v1

>  <ConformerSites alias>  (25) 
1a - 7gp9/A/201

>  <CanonSites alias>  (25) 
1 - 7gp9/A/201/1

>  <CrystalformSites alias>  (25) 
F1f - 0446/A/209

>  <Quatassemblies alias>  (25) 
A1 - monomer

>  <Crystalforms alias>  (25) 
F1 - D68_3C_PROB

>  <ConformerSites upload name>  (25) 
1a - 7gp9/A/201

>  <CanonSites upload name>  (25) 
1 - 7gp9/A/201/1

>  <CrystalformSites upload name>  (25) 
F1f - D68EV3CPROB-x0446/A/209/1

>  <Quatassemblies upload name>  (25) 
A1 - monomer

>  <Crystalforms upload name>  (25) 
F1 - D68_3C_PROB

>  <ConformerSites short tag>  (25) 
1a - 7gp9/A/201

>  <CanonSites short tag>  (25) 
1 - 7gp9/A/201/1

>  <CrystalformSites short tag>  (25) 
F1f - 0446/A/209

>  <Quatassemblies short tag>  (25) 
A1 - monomer

>  <Crystalforms short tag>  (25) 
F1 - D68_3C_PROB

>  <Centroid res>  (25) 
7gp9/A/163/A_v1

>  <Experiment code>  (25) 
D68EV3CPROB-x0805

>  <Pose>  (25) 
B0805a

$$$$
B0839a
     RDKit          3D

 21 23  0  0  0  0  0  0  0  0999 V2000
    0.9490   -3.7130   24.9570 N   0  0  0  0  0  0  0  0  0  0  0  0
    1.5190   -3.3820   26.2410 C   0  0  0  0  0  0  0  0  0  0  0  0
    3.0290   -1.4910   25.9760 O   0  0  0  0  0  0  0  0  0  0  0  0
    2.8980   -2.8450   26.1470 C   0  0  0  0  0  0  0  0  0  0  0  0
    7.8970   -7.5790   30.0290 C   0  0  0  0  0  0  0  0  0  0  0  0
    7.4040   -6.2970   29.9070 C   0  0  0  0  0  0  0  0  0  0  0  0
    6.9100   -5.8500   28.6910 C   0  0  0  0  0  0  0  0  0  0  0  0
    6.9130   -6.6930   27.5790 C   0  0  0  0  0  0  0  0  0  0  0  0
    4.3700   -1.2980   25.9250 C   0  0  0  0  0  0  0  0  0  0  0  0
    4.1400   -3.3690   26.1850 C   0  0  0  0  0  0  0  0  0  0  0  0
    4.5660   -4.7800   26.3480 C   0  0  0  0  0  0  0  0  0  0  0  0
    6.4500   -6.2480   26.2570 C   0  0  0  0  0  0  0  0  0  0  0  0
    6.5350   -7.0900   25.2050 C   0  0  0  0  0  0  0  0  0  0  0  0
    7.4740   -8.8980   26.5280 C   0  0  0  0  0  0  0  0  0  0  0  0
    7.4130   -8.0020   27.7050 C   0  0  0  0  0  0  0  0  0  0  0  0
    7.8990   -8.4370   28.9390 C   0  0  0  0  0  0  0  0  0  0  0  0
    5.0770   -2.3610   26.0440 N   0  0  0  0  0  0  0  0  0  0  0  0
    5.8990   -5.0000   26.1320 N   0  0  0  0  0  0  0  0  0  0  0  0
    7.0210   -8.3530   25.3500 N   0  0  0  0  0  0  0  0  0  0  0  0
    3.7730   -5.6770   26.6460 O   0  0  0  0  0  0  0  0  0  0  0  0
    7.9110  -10.0450   26.5630 O   0  0  0  0  0  0  0  0  0  0  0  0
  2  1  1  0
  4  3  1  0
  4  2  1  0
  6  5  2  0
  7  6  1  0
  8  7  2  0
  9  3  1  0
 10  4  2  0
 11 10  1  0
 12  8  1  0
 13 12  2  0
 15 14  1  0
 15  8  1  0
 16 15  2  0
 16  5  1  0
 17 10  1  0
 17  9  2  0
 18 11  1  0
 18 12  1  0
 19 14  1  0
 19 13  1  0
 20 11  2  0
 21 14  2  0
M  END
>  <id>  (26) 
154

>  <inchikey>  (26) 
NJGXKVVNPAPYKZ-UHFFFAOYSA-N

>  <alias>  (26) 
B0839a

>  <smiles>  (26) 
NCc1ocnc1C(=O)Nc1c[nH]c(=O)c2ccccc12

>  <path>  (26) 
/opt/xchem-fragalysis-2/maxwin/BulkDock/TARGETS/D68EV3C/aligned_files/B0839a/B0839a_hippo.pdb

>  <distance_score>  (26) 
None

>  <energy_score>  (26) 
None

>  <compound>  (26) 
NJGXKVVNPAPYKZ-UHFFFAOYSA-N

>  <compound_id>  (26) 
124

>  <target>  (26) 
D68EV3C

>  <tags>  (26) 
['[Other] upload_1 2025-02-11', 'hits', '[Other] iter1_frags']

>  <inspirations>  (26) 


>  <reference>  (26) 


>  <observation_longname>  (26) 
D68EV3CPROB-x0839_A_308_v1

>  <ConformerSites alias>  (26) 
1a - 7gp9/A/201

>  <CanonSites alias>  (26) 
1 - 7gp9/A/201/1

>  <CrystalformSites alias>  (26) 
F1h - 1020/A/308

>  <Quatassemblies alias>  (26) 
A1 - monomer

>  <Crystalforms alias>  (26) 
F1 - D68_3C_PROB

>  <ConformerSites upload name>  (26) 
1a - 7gp9/A/201

>  <CanonSites upload name>  (26) 
1 - 7gp9/A/201/1

>  <CrystalformSites upload name>  (26) 
F1h - D68EV3CPROB-x1020/A/308/1

>  <Quatassemblies upload name>  (26) 
A1 - monomer

>  <Crystalforms upload name>  (26) 
F1 - D68_3C_PROB

>  <ConformerSites short tag>  (26) 
1a - 7gp9/A/201

>  <CanonSites short tag>  (26) 
1 - 7gp9/A/201/1

>  <CrystalformSites short tag>  (26) 
F1h - 1020/A/308

>  <Quatassemblies short tag>  (26) 
A1 - monomer

>  <Crystalforms short tag>  (26) 
F1 - D68_3C_PROB

>  <Centroid res>  (26) 
7gp9/A/163/A_v1

>  <Experiment code>  (26) 
D68EV3CPROB-x0839

>  <Pose>  (26) 
B0839a

$$$$
B0857a
     RDKit          3D

 16 18  0  0  0  0  0  0  0  0999 V2000
   -1.4260   -7.5370   34.6910 N   0  0  0  0  0  0  0  0  0  0  0  0
   -1.2750   -7.5410   33.3600 C   0  0  0  0  0  0  0  0  0  0  0  0
   -0.6170   -6.9420   31.3600 C   0  0  0  0  0  0  0  0  0  0  0  0
    0.0720   -6.1530   30.4100 C   0  0  0  0  0  0  0  0  0  0  0  0
    0.8690   -5.1460   30.8370 C   0  0  0  0  0  0  0  0  0  0  0  0
    1.0510   -4.8470   32.2340 C   0  0  0  0  0  0  0  0  0  0  0  0
    1.9720   -3.7700   32.6570 C   0  0  0  0  0  0  0  0  0  0  0  0
    1.6500   -2.8680   33.6660 C   0  0  0  0  0  0  0  0  0  0  0  0
    3.6730   -1.8540   33.4210 C   0  0  0  0  0  0  0  0  0  0  0  0
    3.9980   -2.7450   32.4160 C   0  0  0  0  0  0  0  0  0  0  0  0
    0.3770   -5.6110   33.1320 C   0  0  0  0  0  0  0  0  0  0  0  0
   -1.8850   -8.3320   32.4860 N   0  0  0  0  0  0  0  0  0  0  0  0
   -1.4670   -7.9530   31.2080 N   0  0  0  0  0  0  0  0  0  0  0  0
    2.4960   -1.9090   34.0530 N   0  0  0  0  0  0  0  0  0  0  0  0
    3.1550   -3.7110   32.0240 N   0  0  0  0  0  0  0  0  0  0  0  0
   -0.4460   -6.6370   32.7090 N   0  0  0  0  0  0  0  0  0  0  0  0
  2  1  1  0
  4  3  1  0
  5  4  2  0
  6  5  1  0
  7  6  1  0
  8  7  2  0
 10  9  1  0
 11  6  2  0
 12  2  2  0
 13 12  1  0
 13  3  2  0
 14  9  2  0
 14  8  1  0
 15 10  2  0
 15  7  1  0
 16  3  1  0
 16 11  1  0
 16  2  1  0
M  END
>  <id>  (27) 
156

>  <inchikey>  (27) 
UMISTZPDVYVABX-UHFFFAOYSA-N

>  <alias>  (27) 
B0857a

>  <smiles>  (27) 
Nc1nnc2ccc(-c3cnccn3)cn12

>  <path>  (27) 
/opt/xchem-fragalysis-2/maxwin/BulkDock/TARGETS/D68EV3C/aligned_files/B0857a/B0857a.pdb

>  <distance_score>  (27) 
None

>  <energy_score>  (27) 
None

>  <compound>  (27) 
UMISTZPDVYVABX-UHFFFAOYSA-N

>  <compound_id>  (27) 
125

>  <target>  (27) 
D68EV3C

>  <tags>  (27) 
['[Other] upload_1 2025-02-11', 'hits', '[Other] iter1_frags']

>  <inspirations>  (27) 


>  <reference>  (27) 


>  <observation_longname>  (27) 
D68EV3CPROB-x0857_A_308_v1

>  <ConformerSites alias>  (27) 
1a - 7gp9/A/201

>  <CanonSites alias>  (27) 
1 - 7gp9/A/201/1

>  <CrystalformSites alias>  (27) 
F1f - 0446/A/209

>  <Quatassemblies alias>  (27) 
A1 - monomer

>  <Crystalforms alias>  (27) 
F1 - D68_3C_PROB

>  <ConformerSites upload name>  (27) 
1a - 7gp9/A/201

>  <CanonSites upload name>  (27) 
1 - 7gp9/A/201/1

>  <CrystalformSites upload name>  (27) 
F1f - D68EV3CPROB-x0446/A/209/1

>  <Quatassemblies upload name>  (27) 
A1 - monomer

>  <Crystalforms upload name>  (27) 
F1 - D68_3C_PROB

>  <ConformerSites short tag>  (27) 
1a - 7gp9/A/201

>  <CanonSites short tag>  (27) 
1 - 7gp9/A/201/1

>  <CrystalformSites short tag>  (27) 
F1f - 0446/A/209

>  <Quatassemblies short tag>  (27) 
A1 - monomer

>  <Crystalforms short tag>  (27) 
F1 - D68_3C_PROB

>  <Centroid res>  (27) 
7gp9/A/163/A_v1

>  <Experiment code>  (27) 
D68EV3CPROB-x0857

>  <Pose>  (27) 
B0857a

$$$$
B0875a
     RDKit          3D

 18 20  0  0  0  0  0  0  0  0999 V2000
   -0.3500   -5.8550   37.2020 N   0  0  0  0  0  0  0  0  0  0  0  0
   -0.1670   -6.3260   35.9050 C   0  0  0  0  0  0  0  0  0  0  0  0
    0.4630   -7.3520   35.6810 O   0  0  0  0  0  0  0  0  0  0  0  0
   -0.0960   -6.5820   38.3780 C   0  0  0  0  0  0  0  0  0  0  0  0
    0.6990   -7.7280   38.4930 C   0  0  0  0  0  0  0  0  0  0  0  0
   -0.5760   -6.3550   39.6380 C   0  0  0  0  0  0  0  0  0  0  0  0
   -0.0810   -5.6760   33.5660 C   0  0  0  0  0  0  0  0  0  0  0  0
    0.8350   -4.9980   32.7770 C   0  0  0  0  0  0  0  0  0  0  0  0
    0.9580   -5.3230   31.4060 C   0  0  0  0  0  0  0  0  0  0  0  0
    0.2020   -6.3160   30.8390 C   0  0  0  0  0  0  0  0  0  0  0  0
   -0.7240   -7.0400   31.6320 C   0  0  0  0  0  0  0  0  0  0  0  0
   -1.7600   -7.5860   33.4760 C   0  0  0  0  0  0  0  0  0  0  0  0
    0.6910   -8.1750   39.7420 N   0  0  0  0  0  0  0  0  0  0  0  0
   -0.0940   -7.3190   40.4290 N   0  0  0  0  0  0  0  0  0  0  0  0
   -0.2820   -5.3690   34.9120 N   0  0  0  0  0  0  0  0  0  0  0  0
   -1.5040   -8.0830   31.3730 N   0  0  0  0  0  0  0  0  0  0  0  0
   -2.1530   -8.4200   32.5580 N   0  0  0  0  0  0  0  0  0  0  0  0
   -0.8520   -6.6970   32.9730 N   0  0  0  0  0  0  0  0  0  0  0  0
  2  1  1  0
  3  2  2  0
  4  1  1  0
  5  4  1  0
  6  4  2  0
  8  7  2  0
  9  8  1  0
 10  9  2  0
 11 10  1  0
 13  5  2  0
 14 13  1  0
 14  6  1  0
 15  7  1  0
 15  2  1  0
 16 11  2  0
 17 16  1  0
 17 12  2  0
 18 11  1  0
 18 12  1  0
 18  7  1  0
M  END
>  <id>  (28) 
158

>  <inchikey>  (28) 
JRIYYXNYNZMFKZ-UHFFFAOYSA-N

>  <alias>  (28) 
B0875a

>  <smiles>  (28) 
O=C(Nc1cn[nH]c1)Nc1cccc2nncn12

>  <path>  (28) 
/opt/xchem-fragalysis-2/maxwin/BulkDock/TARGETS/D68EV3C/aligned_files/B0875a/B0875a_hippo.pdb

>  <distance_score>  (28) 
None

>  <energy_score>  (28) 
None

>  <compound>  (28) 
JRIYYXNYNZMFKZ-UHFFFAOYSA-N

>  <compound_id>  (28) 
126

>  <target>  (28) 
D68EV3C

>  <tags>  (28) 
['[Other] upload_1 2025-02-11', 'hits', '[Other] iter1_frags']

>  <inspirations>  (28) 


>  <reference>  (28) 


>  <observation_longname>  (28) 
D68EV3CPROB-x0875_B_301_v1

>  <ConformerSites alias>  (28) 
1a - 7gp9/A/201

>  <CanonSites alias>  (28) 
1 - 7gp9/A/201/1

>  <CrystalformSites alias>  (28) 
F1e - 0436/B/301

>  <Quatassemblies alias>  (28) 
A1 - monomer

>  <Crystalforms alias>  (28) 
F1 - D68_3C_PROB

>  <ConformerSites upload name>  (28) 
1a - 7gp9/A/201

>  <CanonSites upload name>  (28) 
1 - 7gp9/A/201/1

>  <CrystalformSites upload name>  (28) 
F1e - D68EV3CPROB-x0436/B/301/1

>  <Quatassemblies upload name>  (28) 
A1 - monomer

>  <Crystalforms upload name>  (28) 
F1 - D68_3C_PROB

>  <ConformerSites short tag>  (28) 
1a - 7gp9/A/201

>  <CanonSites short tag>  (28) 
1 - 7gp9/A/201/1

>  <CrystalformSites short tag>  (28) 
F1e - 0436/B/301

>  <Quatassemblies short tag>  (28) 
A1 - monomer

>  <Crystalforms short tag>  (28) 
F1 - D68_3C_PROB

>  <Centroid res>  (28) 
7gp9/A/163/A_v1

>  <Experiment code>  (28) 
D68EV3CPROB-x0875

>  <Pose>  (28) 
B0875a

$$$$
B0914a
     RDKit          3D

 24 27  0  0  0  0  0  0  0  0999 V2000
   -0.0470   -2.8300   30.3930 N   0  0  0  0  0  0  0  0  0  0  0  0
    2.6520   -1.7390   29.9240 C   0  0  0  0  0  0  0  0  0  0  0  0
    1.9610   -2.3400   29.0290 C   0  0  0  0  0  0  0  0  0  0  0  0
   -1.2450   -2.1750   30.2220 C   0  0  0  0  0  0  0  0  0  0  0  0
   -1.4700   -1.0510   29.2920 C   0  0  0  0  0  0  0  0  0  0  0  0
   -0.8170    0.1610   29.4620 C   0  0  0  0  0  0  0  0  0  0  0  0
   -0.9940    1.1730   28.5360 C   0  0  0  0  0  0  0  0  0  0  0  0
   -1.8290    0.9420   27.4620 C   0  0  0  0  0  0  0  0  0  0  0  0
   -2.2990   -1.1790   28.1850 C   0  0  0  0  0  0  0  0  0  0  0  0
    0.8420   -3.2790   29.3100 C   0  0  0  0  0  0  0  0  0  0  0  0
   -0.2700   -3.6590   31.4770 C   0  0  0  0  0  0  0  0  0  0  0  0
    0.2550   -5.7380   33.1900 C   0  0  0  0  0  0  0  0  0  0  0  0
    0.2680   -5.6980   34.5430 C   0  0  0  0  0  0  0  0  0  0  0  0
   -0.4660   -6.6320   35.2830 C   0  0  0  0  0  0  0  0  0  0  0  0
   -1.1990   -7.5960   34.6700 C   0  0  0  0  0  0  0  0  0  0  0  0
   -1.2070   -7.6760   33.2570 C   0  0  0  0  0  0  0  0  0  0  0  0
   -0.6510   -7.1030   31.2280 C   0  0  0  0  0  0  0  0  0  0  0  0
   -1.8040   -8.5100   32.4190 N   0  0  0  0  0  0  0  0  0  0  0  0
   -1.4410   -8.1350   31.1290 N   0  0  0  0  0  0  0  0  0  0  0  0
   -0.4670   -6.7510   32.5360 N   0  0  0  0  0  0  0  0  0  0  0  0
   -1.5190   -3.5940   31.8740 N   0  0  0  0  0  0  0  0  0  0  0  0
   -2.1390   -2.6320   31.0760 N   0  0  0  0  0  0  0  0  0  0  0  0
   -2.4830   -0.2090   27.2760 N   0  0  0  0  0  0  0  0  0  0  0  0
    1.0430   -4.4520   32.3240 S   0  0  0  0  0  0  0  0  0  0  0  0
  3  2  2  0
  4  1  1  0
  5  4  1  0
  6  5  2  0
  7  6  1  0
  8  7  2  0
  9  5  1  0
 10  3  1  0
 10  1  1  0
 11  1  1  0
 13 12  2  0
 14 13  1  0
 15 14  2  0
 16 15  1  0
 18 16  2  0
 19 18  1  0
 19 17  2  0
 20 17  1  0
 20 16  1  0
 20 12  1  0
 21 11  2  0
 22 21  1  0
 22  4  2  0
 23  9  2  0
 23  8  1  0
 24 12  1  0
 24 11  1  0
M  END
>  <id>  (29) 
162

>  <inchikey>  (29) 
RYSJOJRUDGPUDU-UHFFFAOYSA-N

>  <alias>  (29) 
B0914a

>  <smiles>  (29) 
C=CCn1c(Sc2cccc3nncn23)nnc1-c1cccnc1

>  <path>  (29) 
/opt/xchem-fragalysis-2/maxwin/BulkDock/TARGETS/D68EV3C/aligned_files/B0914a/B0914a.pdb

>  <distance_score>  (29) 
None

>  <energy_score>  (29) 
None

>  <compound>  (29) 
RYSJOJRUDGPUDU-UHFFFAOYSA-N

>  <compound_id>  (29) 
128

>  <target>  (29) 
D68EV3C

>  <tags>  (29) 
['[Other] upload_1 2025-02-11', 'hits', '[Other] iter1_frags']

>  <inspirations>  (29) 


>  <reference>  (29) 


>  <observation_longname>  (29) 
D68EV3CPROB-x0914_A_308_v1

>  <ConformerSites alias>  (29) 
1a - 7gp9/A/201

>  <CanonSites alias>  (29) 
1 - 7gp9/A/201/1

>  <CrystalformSites alias>  (29) 
F1e - 0436/B/301

>  <Quatassemblies alias>  (29) 
A1 - monomer

>  <Crystalforms alias>  (29) 
F1 - D68_3C_PROB

>  <ConformerSites upload name>  (29) 
1a - 7gp9/A/201

>  <CanonSites upload name>  (29) 
1 - 7gp9/A/201/1

>  <CrystalformSites upload name>  (29) 
F1e - D68EV3CPROB-x0436/B/301/1

>  <Quatassemblies upload name>  (29) 
A1 - monomer

>  <Crystalforms upload name>  (29) 
F1 - D68_3C_PROB

>  <ConformerSites short tag>  (29) 
1a - 7gp9/A/201

>  <CanonSites short tag>  (29) 
1 - 7gp9/A/201/1

>  <CrystalformSites short tag>  (29) 
F1e - 0436/B/301

>  <Quatassemblies short tag>  (29) 
A1 - monomer

>  <Crystalforms short tag>  (29) 
F1 - D68_3C_PROB

>  <Centroid res>  (29) 
7gp9/A/163/A_v1

>  <Experiment code>  (29) 
D68EV3CPROB-x0914

>  <Pose>  (29) 
B0914a

$$$$
B0931a
     RDKit          3D

 17 19  0  0  0  0  0  0  0  0999 V2000
    0.1100   -7.1770   40.6300 N   0  0  0  0  0  0  0  0  0  0  0  0
    1.3360   -5.0850   32.1850 C   0  0  0  0  0  0  0  0  0  0  0  0
    1.0880   -5.3860   33.5440 C   0  0  0  0  0  0  0  0  0  0  0  0
   -0.2940   -6.7220   31.5160 C   0  0  0  0  0  0  0  0  0  0  0  0
    0.6700   -5.7350   31.1840 C   0  0  0  0  0  0  0  0  0  0  0  0
    0.1700   -6.3280   33.8790 C   0  0  0  0  0  0  0  0  0  0  0  0
    1.0230   -6.0070   36.5900 C   0  0  0  0  0  0  0  0  0  0  0  0
    0.7160   -6.4140   38.0040 C   0  0  0  0  0  0  0  0  0  0  0  0
    0.8710   -7.7250   38.4240 C   0  0  0  0  0  0  0  0  0  0  0  0
    0.5580   -8.0580   39.7280 C   0  0  0  0  0  0  0  0  0  0  0  0
   -0.0240   -5.9110   40.2160 C   0  0  0  0  0  0  0  0  0  0  0  0
    0.2580   -5.4930   38.9300 C   0  0  0  0  0  0  0  0  0  0  0  0
   -1.4980   -7.9500   32.8690 C   0  0  0  0  0  0  0  0  0  0  0  0
   -0.5300   -6.9850   32.8610 N   0  0  0  0  0  0  0  0  0  0  0  0
   -1.8360   -8.2790   31.6530 N   0  0  0  0  0  0  0  0  0  0  0  0
   -1.0730   -7.5060   30.7780 N   0  0  0  0  0  0  0  0  0  0  0  0
   -0.1950   -6.8350   35.5170 S   0  0  0  0  0  0  0  0  0  0  0  0
  3  2  1  0
  5  4  1  0
  5  2  2  0
  6  3  2  0
  8  7  1  0
  9  8  2  0
 10  9  1  0
 10  1  2  0
 11  1  1  0
 12  8  1  0
 12 11  2  0
 14  4  1  0
 14 13  1  0
 14  6  1  0
 15 13  2  0
 16 15  1  0
 16  4  2  0
 17  7  1  0
 17  6  1  0
M  END
>  <id>  (30) 
164

>  <inchikey>  (30) 
YKUFZDVJLQYFAS-UHFFFAOYSA-N

>  <alias>  (30) 
B0931a

>  <smiles>  (30) 
c1cc(SCc2ccncc2)n2cnnc2c1

>  <path>  (30) 
/opt/xchem-fragalysis-2/maxwin/BulkDock/TARGETS/D68EV3C/aligned_files/B0931a/B0931a.pdb

>  <distance_score>  (30) 
None

>  <energy_score>  (30) 
None

>  <compound>  (30) 
YKUFZDVJLQYFAS-UHFFFAOYSA-N

>  <compound_id>  (30) 
129

>  <target>  (30) 
D68EV3C

>  <tags>  (30) 
['[Other] upload_1 2025-02-11', 'hits', '[Other] iter1_frags']

>  <inspirations>  (30) 


>  <reference>  (30) 


>  <observation_longname>  (30) 
D68EV3CPROB-x0931_A_308_v1

>  <ConformerSites alias>  (30) 
1a - 7gp9/A/201

>  <CanonSites alias>  (30) 
1 - 7gp9/A/201/1

>  <CrystalformSites alias>  (30) 
F1f - 0446/A/209

>  <Quatassemblies alias>  (30) 
A1 - monomer

>  <Crystalforms alias>  (30) 
F1 - D68_3C_PROB

>  <ConformerSites upload name>  (30) 
1a - 7gp9/A/201

>  <CanonSites upload name>  (30) 
1 - 7gp9/A/201/1

>  <CrystalformSites upload name>  (30) 
F1f - D68EV3CPROB-x0446/A/209/1

>  <Quatassemblies upload name>  (30) 
A1 - monomer

>  <Crystalforms upload name>  (30) 
F1 - D68_3C_PROB

>  <ConformerSites short tag>  (30) 
1a - 7gp9/A/201

>  <CanonSites short tag>  (30) 
1 - 7gp9/A/201/1

>  <CrystalformSites short tag>  (30) 
F1f - 0446/A/209

>  <Quatassemblies short tag>  (30) 
A1 - monomer

>  <Crystalforms short tag>  (30) 
F1 - D68_3C_PROB

>  <Centroid res>  (30) 
7gp9/A/163/A_v1

>  <Experiment code>  (30) 
D68EV3CPROB-x0931

>  <Pose>  (30) 
B0931a

$$$$
B0938a
     RDKit          3D

 20 23  0  0  0  0  0  0  0  0999 V2000
    1.1990   -7.1230   35.2490 N   0  0  0  0  0  0  0  0  0  0  0  0
    2.1430   -7.9790   35.7770 C   0  0  0  0  0  0  0  0  0  0  0  0
    2.9460   -8.5490   35.0310 O   0  0  0  0  0  0  0  0  0  0  0  0
    0.2660   -6.4890   36.0170 C   0  0  0  0  0  0  0  0  0  0  0  0
    2.1190   -8.6300   39.6240 C   0  0  0  0  0  0  0  0  0  0  0  0
    2.0170   -8.1090   37.2270 C   0  0  0  0  0  0  0  0  0  0  0  0
   -0.4930   -5.5920   33.5470 C   0  0  0  0  0  0  0  0  0  0  0  0
    0.1730   -4.6860   32.7920 C   0  0  0  0  0  0  0  0  0  0  0  0
    0.3410   -4.9130   31.4080 C   0  0  0  0  0  0  0  0  0  0  0  0
   -0.1660   -6.0320   30.8030 C   0  0  0  0  0  0  0  0  0  0  0  0
   -0.8700   -6.9820   31.5800 C   0  0  0  0  0  0  0  0  0  0  0  0
   -1.6930   -7.8140   33.4210 C   0  0  0  0  0  0  0  0  0  0  0  0
    1.0420   -7.4540   37.9480 C   0  0  0  0  0  0  0  0  0  0  0  0
    1.1000   -7.7620   39.3510 C   0  0  0  0  0  0  0  0  0  0  0  0
   -1.4920   -8.1230   31.2840 N   0  0  0  0  0  0  0  0  0  0  0  0
   -2.0060   -8.6340   32.4630 N   0  0  0  0  0  0  0  0  0  0  0  0
   -0.9950   -6.7450   32.9410 N   0  0  0  0  0  0  0  0  0  0  0  0
    0.1560   -6.6250   37.3090 N   0  0  0  0  0  0  0  0  0  0  0  0
   -0.8560   -5.3960   35.2530 S   0  0  0  0  0  0  0  0  0  0  0  0
    3.0130   -9.0820   38.2440 S   0  0  0  0  0  0  0  0  0  0  0  0
  2  1  1  0
  3  2  2  0
  4  1  1  0
  6  2  1  0
  8  7  2  0
  9  8  1  0
 10  9  2  0
 11 10  1  0
 13  6  2  0
 14 13  1  0
 14  5  2  0
 15 11  2  0
 16 15  1  0
 16 12  2  0
 17 11  1  0
 17 12  1  0
 17  7  1  0
 18 13  1  0
 18  4  2  0
 19  7  1  0
 19  4  1  0
 20  6  1  0
 20  5  1  0
M  END
>  <id>  (31) 
166

>  <inchikey>  (31) 
NCWBPSWMAZWHHP-UHFFFAOYSA-N

>  <alias>  (31) 
B0938a

>  <smiles>  (31) 
O=c1[nH]c(Sc2cccc3nncn23)nc2ccsc12

>  <path>  (31) 
/opt/xchem-fragalysis-2/maxwin/BulkDock/TARGETS/D68EV3C/aligned_files/B0938a/B0938a.pdb

>  <distance_score>  (31) 
None

>  <energy_score>  (31) 
None

>  <compound>  (31) 
NCWBPSWMAZWHHP-UHFFFAOYSA-N

>  <compound_id>  (31) 
130

>  <target>  (31) 
D68EV3C

>  <tags>  (31) 
['[Other] upload_1 2025-02-11', 'hits', '[Other] iter1_frags']

>  <inspirations>  (31) 


>  <reference>  (31) 


>  <observation_longname>  (31) 
D68EV3CPROB-x0938_A_308_v1

>  <ConformerSites alias>  (31) 
1a - 7gp9/A/201

>  <CanonSites alias>  (31) 
1 - 7gp9/A/201/1

>  <CrystalformSites alias>  (31) 
F1e - 0436/B/301

>  <Quatassemblies alias>  (31) 
A1 - monomer

>  <Crystalforms alias>  (31) 
F1 - D68_3C_PROB

>  <ConformerSites upload name>  (31) 
1a - 7gp9/A/201

>  <CanonSites upload name>  (31) 
1 - 7gp9/A/201/1

>  <CrystalformSites upload name>  (31) 
F1e - D68EV3CPROB-x0436/B/301/1

>  <Quatassemblies upload name>  (31) 
A1 - monomer

>  <Crystalforms upload name>  (31) 
F1 - D68_3C_PROB

>  <ConformerSites short tag>  (31) 
1a - 7gp9/A/201

>  <CanonSites short tag>  (31) 
1 - 7gp9/A/201/1

>  <CrystalformSites short tag>  (31) 
F1e - 0436/B/301

>  <Quatassemblies short tag>  (31) 
A1 - monomer

>  <Crystalforms short tag>  (31) 
F1 - D68_3C_PROB

>  <Centroid res>  (31) 
7gp9/A/163/A_v1

>  <Experiment code>  (31) 
D68EV3CPROB-x0938

>  <Pose>  (31) 
B0938a

$$$$
B1020a
     RDKit          3D

 18 20  0  0  0  0  0  0  0  0999 V2000
    0.1430   -4.9380   37.1470 N   0  0  0  0  0  0  0  0  0  0  0  0
    1.0820   -4.2270   38.0380 C   0  0  0  0  0  0  0  0  0  0  0  0
    0.0410   -7.3940   37.2400 O   0  0  0  0  0  0  0  0  0  0  0  0
    0.3140   -3.3090   38.9720 C   0  0  0  0  0  0  0  0  0  0  0  0
   -1.7630   -3.5340   37.7390 C   0  0  0  0  0  0  0  0  0  0  0  0
   -1.2380   -4.9530   37.6610 C   0  0  0  0  0  0  0  0  0  0  0  0
    0.4380   -5.2370   34.1400 C   0  0  0  0  0  0  0  0  0  0  0  0
    0.8470   -5.8700   32.8160 C   0  0  0  0  0  0  0  0  0  0  0  0
   -0.2480   -6.7770   32.3460 C   0  0  0  0  0  0  0  0  0  0  0  0
   -1.1180   -7.3780   33.1870 C   0  0  0  0  0  0  0  0  0  0  0  0
   -1.1330   -7.1170   34.6590 C   0  0  0  0  0  0  0  0  0  0  0  0
   -0.7520   -2.5970   38.2570 N   0  0  0  0  0  0  0  0  0  0  0  0
    0.0060   -6.2800   35.0920 N   0  0  0  0  0  0  0  0  0  0  0  0
   -0.5190   -7.1920   31.0800 N   0  0  0  0  0  0  0  0  0  0  0  0
   -1.5200   -8.0470   31.1220 N   0  0  0  0  0  0  0  0  0  0  0  0
   -1.8880   -8.1640   32.4110 N   0  0  0  0  0  0  0  0  0  0  0  0
    2.0780   -6.2400   36.4020 O   0  0  0  0  0  0  0  0  0  0  0  0
    0.6680   -6.3230   36.5450 S   0  0  1  0  0  0  0  0  0  0  0  0
  2  1  1  0
  4  2  1  0
  6  5  1  0
  6  1  1  0
  8  7  1  0
  9  8  1  0
 10  9  2  0
 11 10  1  0
 12  5  1  0
 12  4  1  0
 13 11  1  0
 13  7  1  0
 14  9  1  0
 15 14  2  0
 16 15  1  0
 16 10  1  0
 18 17  2  0
 18 13  1  6
 18  3  2  0
 18  1  1  0
M  END
>  <id>  (32) 
168

>  <inchikey>  (32) 
RMTPRUDWXABPBE-UHFFFAOYSA-N

>  <alias>  (32) 
B1020a

>  <smiles>  (32) 
O=S(=O)(N1CCNCC1)N1CCc2nn[nH]c2C1

>  <path>  (32) 
/opt/xchem-fragalysis-2/maxwin/BulkDock/TARGETS/D68EV3C/aligned_files/B1020a/B1020a.pdb

>  <distance_score>  (32) 
None

>  <energy_score>  (32) 
None

>  <compound>  (32) 
RMTPRUDWXABPBE-UHFFFAOYSA-N

>  <compound_id>  (32) 
131

>  <target>  (32) 
D68EV3C

>  <tags>  (32) 
['[Other] upload_1 2025-02-11', 'hits', '[Other] iter1_frags']

>  <inspirations>  (32) 


>  <reference>  (32) 


>  <observation_longname>  (32) 
D68EV3CPROB-x1020_A_308_v1

>  <ConformerSites alias>  (32) 
1a - 7gp9/A/201

>  <CanonSites alias>  (32) 
1 - 7gp9/A/201/1

>  <CrystalformSites alias>  (32) 
F1h - 1020/A/308

>  <Quatassemblies alias>  (32) 
A1 - monomer

>  <Crystalforms alias>  (32) 
F1 - D68_3C_PROB

>  <ConformerSites upload name>  (32) 
1a - 7gp9/A/201

>  <CanonSites upload name>  (32) 
1 - 7gp9/A/201/1

>  <CrystalformSites upload name>  (32) 
F1h - D68EV3CPROB-x1020/A/308/1

>  <Quatassemblies upload name>  (32) 
A1 - monomer

>  <Crystalforms upload name>  (32) 
F1 - D68_3C_PROB

>  <ConformerSites short tag>  (32) 
1a - 7gp9/A/201

>  <CanonSites short tag>  (32) 
1 - 7gp9/A/201/1

>  <CrystalformSites short tag>  (32) 
F1h - 1020/A/308

>  <Quatassemblies short tag>  (32) 
A1 - monomer

>  <Crystalforms short tag>  (32) 
F1 - D68_3C_PROB

>  <Centroid res>  (32) 
7gp9/A/163/A_v1

>  <Experiment code>  (32) 
D68EV3CPROB-x1020

>  <Pose>  (32) 
B1020a

$$$$
B1219a
     RDKit          3D

 20 23  0  0  0  0  0  0  0  0999 V2000
    2.4450   -3.5400   30.0940 N   0  0  0  0  0  0  0  0  0  0  0  0
   -0.3640   -1.1570   28.2900 C   0  0  0  0  0  0  0  0  0  0  0  0
    0.9420   -0.8350   27.9960 C   0  0  0  0  0  0  0  0  0  0  0  0
   -0.3530   -7.3690   31.1520 C   0  0  0  0  0  0  0  0  0  0  0  0
    0.2980   -2.9840   29.6280 C   0  0  0  0  0  0  0  0  0  0  0  0
   -0.7310   -2.2250   29.0790 C   0  0  0  0  0  0  0  0  0  0  0  0
    1.9540   -1.6110   28.5380 C   0  0  0  0  0  0  0  0  0  0  0  0
    1.6340   -2.6830   29.3670 C   0  0  0  0  0  0  0  0  0  0  0  0
    1.6340   -4.3110   30.7630 C   0  0  0  0  0  0  0  0  0  0  0  0
    0.9270   -6.0560   32.9080 C   0  0  0  0  0  0  0  0  0  0  0  0
    0.9330   -5.7320   34.2240 C   0  0  0  0  0  0  0  0  0  0  0  0
   -0.0590   -6.2760   35.0830 C   0  0  0  0  0  0  0  0  0  0  0  0
   -1.0270   -7.1150   34.6040 C   0  0  0  0  0  0  0  0  0  0  0  0
   -1.0530   -7.4400   33.2240 C   0  0  0  0  0  0  0  0  0  0  0  0
   -1.3490   -0.3480   27.8130 F   0  0  0  0  0  0  0  0  0  0  0  0
   -1.8590   -8.2010   32.4890 N   0  0  0  0  0  0  0  0  0  0  0  0
   -1.4010   -8.1450   31.1740 N   0  0  0  0  0  0  0  0  0  0  0  0
   -0.0720   -6.8940   32.4010 N   0  0  0  0  0  0  0  0  0  0  0  0
    0.3260   -4.0470   30.5310 N   0  0  0  0  0  0  0  0  0  0  0  0
    2.2130   -5.5520   31.8600 S   0  0  0  0  0  0  0  0  0  0  0  0
  3  2  2  0
  6  5  2  0
  6  2  1  0
  7  3  1  0
  8  7  2  0
  8  5  1  0
  8  1  1  0
  9  1  2  0
 11 10  2  0
 12 11  1  0
 13 12  2  0
 14 13  1  0
 15  2  1  0
 16 14  2  0
 17 16  1  0
 17  4  2  0
 18  4  1  0
 18 14  1  0
 18 10  1  0
 19  9  1  0
 19  5  1  0
 20 10  1  0
 20  9  1  0
M  END
>  <id>  (33) 
180

>  <inchikey>  (33) 
RAAZIUQROHXXRO-UHFFFAOYSA-N

>  <alias>  (33) 
B1219a

>  <smiles>  (33) 
Fc1ccc2nc(Sc3cccc4nncn34)[nH]c2c1

>  <path>  (33) 
/opt/xchem-fragalysis-2/maxwin/BulkDock/TARGETS/D68EV3C/aligned_files/B1219a/B1219a.pdb

>  <distance_score>  (33) 
None

>  <energy_score>  (33) 
None

>  <compound>  (33) 
RAAZIUQROHXXRO-UHFFFAOYSA-N

>  <compound_id>  (33) 
142

>  <target>  (33) 
D68EV3C

>  <tags>  (33) 
['[Other] upload_1 2025-02-11', 'hits', '[Other] iter1_frags']

>  <inspirations>  (33) 


>  <reference>  (33) 


>  <observation_longname>  (33) 
D68EV3CPROB-x1219_A_310_v1

>  <ConformerSites alias>  (33) 
1a - 7gp9/A/201

>  <CanonSites alias>  (33) 
1 - 7gp9/A/201/1

>  <CrystalformSites alias>  (33) 
F1f - 0446/A/209

>  <Quatassemblies alias>  (33) 
A1 - monomer

>  <Crystalforms alias>  (33) 
F1 - D68_3C_PROB

>  <ConformerSites upload name>  (33) 
1a - 7gp9/A/201

>  <CanonSites upload name>  (33) 
1 - 7gp9/A/201/1

>  <CrystalformSites upload name>  (33) 
F1f - D68EV3CPROB-x0446/A/209/1

>  <Quatassemblies upload name>  (33) 
A1 - monomer

>  <Crystalforms upload name>  (33) 
F1 - D68_3C_PROB

>  <ConformerSites short tag>  (33) 
1a - 7gp9/A/201

>  <CanonSites short tag>  (33) 
1 - 7gp9/A/201/1

>  <CrystalformSites short tag>  (33) 
F1f - 0446/A/209

>  <Quatassemblies short tag>  (33) 
A1 - monomer

>  <Crystalforms short tag>  (33) 
F1 - D68_3C_PROB

>  <Centroid res>  (33) 
7gp9/A/163/A_v1

>  <Experiment code>  (33) 
D68EV3CPROB-x1219

>  <Pose>  (33) 
B1219a

$$$$
B1264a
     RDKit          3D

 14 15  0  0  0  0  0  0  0  0999 V2000
   -0.6200   -6.8460   30.4340 N   0  0  0  0  0  0  0  0  0  0  0  0
   -1.0800   -7.4840   31.5250 C   0  0  0  0  0  0  0  0  0  0  0  0
   -1.8370   -8.4560   31.5150 O   0  0  0  0  0  0  0  0  0  0  0  0
    0.3150   -5.7650   30.7250 C   0  0  0  0  0  0  0  0  0  0  0  0
    0.3560   -5.7970   32.2250 C   0  0  0  0  0  0  0  0  0  0  0  0
    1.0560   -5.0120   33.1330 C   0  0  0  0  0  0  0  0  0  0  0  0
    0.9600   -5.2480   34.4960 C   0  0  0  0  0  0  0  0  0  0  0  0
    0.1480   -6.2750   34.9590 C   0  0  0  0  0  0  0  0  0  0  0  0
   -0.5650   -7.0640   34.0620 C   0  0  0  0  0  0  0  0  0  0  0  0
   -0.4560   -6.8160   32.6870 C   0  0  0  0  0  0  0  0  0  0  0  0
    0.0370   -8.0520   36.7110 F   0  0  0  0  0  0  0  0  0  0  0  0
    1.2660   -6.1150   37.2650 O   0  0  0  0  0  0  0  0  0  0  0  0
   -1.1720   -6.0530   37.1480 O   0  0  0  0  0  0  0  0  0  0  0  0
    0.0640   -6.5060   36.6370 S   0  0  1  0  0  0  0  0  0  0  0  0
  2  1  1  0
  3  2  2  0
  4  1  1  0
  5  4  1  0
  6  5  1  0
  7  6  2  0
  8  7  1  0
  9  8  2  0
 10  5  2  0
 10  2  1  0
 10  9  1  0
 14 13  2  0
 14 12  2  0
 14 11  1  6
 14  8  1  0
M  END
>  <id>  (34) 
183

>  <inchikey>  (34) 
UCPULQCYOXCNJC-UHFFFAOYSA-N

>  <alias>  (34) 
B1264a

>  <smiles>  (34) 
O=C1NCc2ccc(S(=O)(=O)F)cc21

>  <path>  (34) 
/opt/xchem-fragalysis-2/maxwin/BulkDock/TARGETS/D68EV3C/aligned_files/B1264a/B1264a.pdb

>  <distance_score>  (34) 
None

>  <energy_score>  (34) 
None

>  <compound>  (34) 
UCPULQCYOXCNJC-UHFFFAOYSA-N

>  <compound_id>  (34) 
143

>  <target>  (34) 
D68EV3C

>  <tags>  (34) 
['[Other] upload_1 2025-02-11', 'hits', '[Other] iter1_frags']

>  <inspirations>  (34) 


>  <reference>  (34) 


>  <observation_longname>  (34) 
D68EV3CPROB-x1264_B_301_v1

>  <ConformerSites alias>  (34) 
1a - 7gp9/A/201

>  <CanonSites alias>  (34) 
1 - 7gp9/A/201/1

>  <CrystalformSites alias>  (34) 
F1e - 0436/B/301

>  <Quatassemblies alias>  (34) 
A1 - monomer

>  <Crystalforms alias>  (34) 
F1 - D68_3C_PROB

>  <ConformerSites upload name>  (34) 
1a - 7gp9/A/201

>  <CanonSites upload name>  (34) 
1 - 7gp9/A/201/1

>  <CrystalformSites upload name>  (34) 
F1e - D68EV3CPROB-x0436/B/301/1

>  <Quatassemblies upload name>  (34) 
A1 - monomer

>  <Crystalforms upload name>  (34) 
F1 - D68_3C_PROB

>  <ConformerSites short tag>  (34) 
1a - 7gp9/A/201

>  <CanonSites short tag>  (34) 
1 - 7gp9/A/201/1

>  <CrystalformSites short tag>  (34) 
F1e - 0436/B/301

>  <Quatassemblies short tag>  (34) 
A1 - monomer

>  <Crystalforms short tag>  (34) 
F1 - D68_3C_PROB

>  <Centroid res>  (34) 
7gp9/A/163/A_v1

>  <Experiment code>  (34) 
D68EV3CPROB-x1264

>  <Pose>  (34) 
B1264a

$$$$
B1307a
     RDKit          3D

 18 19  0  0  0  0  0  0  0  0999 V2000
    0.7210   -6.0690   32.8940 N   0  0  0  0  0  0  0  0  0  0  0  0
   -1.2540   -7.8390   31.9980 C   0  0  0  0  0  0  0  0  0  0  0  0
   -2.0970   -8.5830   31.5020 O   0  0  0  0  0  0  0  0  0  0  0  0
   -1.0690   -7.5950   33.4070 C   0  0  0  0  0  0  0  0  0  0  0  0
   -0.0950   -6.7250   33.7650 C   0  0  0  0  0  0  0  0  0  0  0  0
    0.5610   -6.2810   31.6280 C   0  0  0  0  0  0  0  0  0  0  0  0
    1.3440   -5.5570   30.5860 C   0  0  0  0  0  0  0  0  0  0  0  0
    0.7260   -4.2070   30.2430 C   0  0  0  0  0  0  0  0  0  0  0  0
   -1.2030   -1.4920   30.3000 C   0  0  0  0  0  0  0  0  0  0  0  0
   -1.4390   -1.8200   28.9940 C   0  0  0  0  0  0  0  0  0  0  0  0
   -1.4180   -0.6800   28.1980 C   0  0  0  0  0  0  0  0  0  0  0  0
    0.4430   -3.3500   31.4090 N   0  0  0  0  0  0  0  0  0  0  0  0
   -1.1960    0.4780   28.8480 N   0  0  0  0  0  0  0  0  0  0  0  0
   -0.3920   -7.1460   31.1660 N   0  0  0  0  0  0  0  0  0  0  0  0
   -0.9490   -1.8990   32.8200 O   0  0  0  0  0  0  0  0  0  0  0  0
   -1.9800   -3.6830   31.4550 O   0  0  0  0  0  0  0  0  0  0  0  0
   -1.0040   -2.6490   31.6030 S   0  0  1  0  0  0  0  0  0  0  0  0
   -1.0060    0.1650   30.4570 S   0  0  0  0  0  0  0  0  0  0  0  0
  3  2  2  0
  4  2  1  0
  5  4  2  0
  5  1  1  0
  6  1  2  0
  7  6  1  0
  8  7  1  0
 10  9  2  0
 11 10  1  0
 12  8  1  0
 13 11  2  0
 14  6  1  0
 14  2  1  0
 17 16  2  0
 17 12  1  6
 17  9  1  0
 17 15  2  0
 18 13  1  0
 18  9  1  0
M  END
>  <id>  (35) 
186

>  <inchikey>  (35) 
CZVHMIQYFCZUOC-UHFFFAOYSA-N

>  <alias>  (35) 
B1307a

>  <smiles>  (35) 
O=c1ccnc(CCNS(=O)(=O)c2ccns2)[nH]1

>  <path>  (35) 
/opt/xchem-fragalysis-2/maxwin/BulkDock/TARGETS/D68EV3C/aligned_files/B1307a/B1307a.pdb

>  <distance_score>  (35) 
None

>  <energy_score>  (35) 
None

>  <compound>  (35) 
CZVHMIQYFCZUOC-UHFFFAOYSA-N

>  <compound_id>  (35) 
146

>  <target>  (35) 
D68EV3C

>  <tags>  (35) 
['[Other] upload_1 2025-02-11', 'hits', '[Other] iter1_frags']

>  <inspirations>  (35) 


>  <reference>  (35) 


>  <observation_longname>  (35) 
D68EV3CPROB-x1307_A_301_v1

>  <ConformerSites alias>  (35) 
1a - 7gp9/A/201

>  <CanonSites alias>  (35) 
1 - 7gp9/A/201/1

>  <CrystalformSites alias>  (35) 
F1f - 0446/A/209

>  <Quatassemblies alias>  (35) 
A1 - monomer

>  <Crystalforms alias>  (35) 
F1 - D68_3C_PROB

>  <ConformerSites upload name>  (35) 
1a - 7gp9/A/201

>  <CanonSites upload name>  (35) 
1 - 7gp9/A/201/1

>  <CrystalformSites upload name>  (35) 
F1f - D68EV3CPROB-x0446/A/209/1

>  <Quatassemblies upload name>  (35) 
A1 - monomer

>  <Crystalforms upload name>  (35) 
F1 - D68_3C_PROB

>  <ConformerSites short tag>  (35) 
1a - 7gp9/A/201

>  <CanonSites short tag>  (35) 
1 - 7gp9/A/201/1

>  <CrystalformSites short tag>  (35) 
F1f - 0446/A/209

>  <Quatassemblies short tag>  (35) 
A1 - monomer

>  <Crystalforms short tag>  (35) 
F1 - D68_3C_PROB

>  <Centroid res>  (35) 
7gp9/A/163/A_v1

>  <Experiment code>  (35) 
D68EV3CPROB-x1307

>  <Pose>  (35) 
B1307a

$$$$
B1361a
     RDKit          3D

 20 21  0  0  0  0  0  0  0  0999 V2000
    0.0880   -2.8870   31.1210 N   0  0  0  0  0  0  0  0  0  0  0  0
    0.2710   -3.7500   29.9490 C   0  0  0  0  0  0  0  0  0  0  0  0
   -1.0960   -1.2220   32.4690 O   0  0  0  0  0  0  0  0  0  0  0  0
    1.0590   -4.9890   30.3170 C   0  0  0  0  0  0  0  0  0  0  0  0
   -1.5290    1.0890   28.8830 C   0  0  0  0  0  0  0  0  0  0  0  0
   -1.3130    0.2980   29.9990 C   0  0  0  0  0  0  0  0  0  0  0  0
    0.3100   -5.7580   31.3620 C   0  0  0  0  0  0  0  0  0  0  0  0
   -0.0910   -6.2040   33.5660 C   0  0  0  0  0  0  0  0  0  0  0  0
   -0.9580   -7.2300   33.2420 C   0  0  0  0  0  0  0  0  0  0  0  0
   -1.1300   -7.4580   31.8750 C   0  0  0  0  0  0  0  0  0  0  0  0
   -1.5270   -1.0700   29.9190 C   0  0  0  0  0  0  0  0  0  0  0  0
   -1.9390   -1.6510   28.7310 C   0  0  0  0  0  0  0  0  0  0  0  0
   -2.1590   -0.8560   27.6210 C   0  0  0  0  0  0  0  0  0  0  0  0
   -1.9690    0.5160   27.6980 C   0  0  0  0  0  0  0  0  0  0  0  0
    0.5560   -5.4580   32.6610 N   0  0  0  0  0  0  0  0  0  0  0  0
   -0.5150   -6.7200   30.9310 N   0  0  0  0  0  0  0  0  0  0  0  0
   -2.3530   -3.0450   31.3800 O   0  0  0  0  0  0  0  0  0  0  0  0
   -1.8740   -8.4400   31.4740 O   0  0  0  0  0  0  0  0  0  0  0  0
   -2.2820    1.2950   26.6180 O   0  0  0  0  0  0  0  0  0  0  0  0
   -1.2920   -2.0830   31.3410 S   0  0  1  0  0  0  0  0  0  0  0  0
  2  1  1  0
  4  2  1  0
  6  5  2  0
  7  4  1  0
  9  8  2  0
 10  9  1  0
 11  6  1  0
 12 11  2  0
 13 12  1  0
 14 13  2  0
 14  5  1  0
 15  7  2  0
 15  8  1  0
 16 10  2  0
 16  7  1  0
 18 10  1  0
 19 14  1  0
 20 17  2  0
 20 11  1  0
 20  3  2  0
 20  1  1  6
M  END
>  <id>  (36) 
188

>  <inchikey>  (36) 
CINSIERXHZAWIH-UHFFFAOYSA-N

>  <alias>  (36) 
B1361a

>  <smiles>  (36) 
O=S(=O)(NCCc1nccc(O)n1)c1ccc(O)cc1

>  <path>  (36) 
/opt/xchem-fragalysis-2/maxwin/BulkDock/TARGETS/D68EV3C/aligned_files/B1361a/B1361a_hippo.pdb

>  <distance_score>  (36) 
None

>  <energy_score>  (36) 
None

>  <compound>  (36) 
CINSIERXHZAWIH-UHFFFAOYSA-N

>  <compound_id>  (36) 
147

>  <target>  (36) 
D68EV3C

>  <tags>  (36) 
['[Other] upload_1 2025-02-11', 'hits', '[Other] iter1_frags']

>  <inspirations>  (36) 


>  <reference>  (36) 


>  <observation_longname>  (36) 
D68EV3CPROB-x1361_A_308_v1

>  <ConformerSites alias>  (36) 
1a - 7gp9/A/201

>  <CanonSites alias>  (36) 
1 - 7gp9/A/201/1

>  <CrystalformSites alias>  (36) 
F1e - 0436/B/301

>  <Quatassemblies alias>  (36) 
A1 - monomer

>  <Crystalforms alias>  (36) 
F1 - D68_3C_PROB

>  <ConformerSites upload name>  (36) 
1a - 7gp9/A/201

>  <CanonSites upload name>  (36) 
1 - 7gp9/A/201/1

>  <CrystalformSites upload name>  (36) 
F1e - D68EV3CPROB-x0436/B/301/1

>  <Quatassemblies upload name>  (36) 
A1 - monomer

>  <Crystalforms upload name>  (36) 
F1 - D68_3C_PROB

>  <ConformerSites short tag>  (36) 
1a - 7gp9/A/201

>  <CanonSites short tag>  (36) 
1 - 7gp9/A/201/1

>  <CrystalformSites short tag>  (36) 
F1e - 0436/B/301

>  <Quatassemblies short tag>  (36) 
A1 - monomer

>  <Crystalforms short tag>  (36) 
F1 - D68_3C_PROB

>  <Centroid res>  (36) 
7gp9/A/163/A_v1

>  <Experiment code>  (36) 
D68EV3CPROB-x1361

>  <Pose>  (36) 
B1361a

$$$$
B1368a
     RDKit          3D

 19 20  0  0  0  0  0  0  0  0999 V2000
   -0.3010   -7.1750   31.2650 N   0  0  0  0  0  0  0  0  0  0  0  0
   -0.2100   -6.6240   35.4830 C   0  0  0  0  0  0  0  0  0  0  0  0
   -2.0450   -8.5730   31.4320 O   0  0  0  0  0  0  0  0  0  0  0  0
   -0.2800   -6.8570   34.0040 C   0  0  0  0  0  0  0  0  0  0  0  0
   -0.7620   -0.2170   30.7000 C   0  0  0  0  0  0  0  0  0  0  0  0
   -1.2020   -7.7250   33.4440 C   0  0  0  0  0  0  0  0  0  0  0  0
   -1.1630   -7.8420   32.0380 C   0  0  0  0  0  0  0  0  0  0  0  0
    0.5220   -6.3500   31.9200 C   0  0  0  0  0  0  0  0  0  0  0  0
    1.3950   -5.4620   31.0850 C   0  0  0  0  0  0  0  0  0  0  0  0
    1.4560   -4.0960   31.7680 C   0  0  0  0  0  0  0  0  0  0  0  0
   -1.5140   -1.9460   29.1550 C   0  0  0  0  0  0  0  0  0  0  0  0
   -1.1060   -0.6830   28.4020 C   0  0  0  0  0  0  0  0  0  0  0  0
   -0.1560    0.0250   29.3360 C   0  0  0  0  0  0  0  0  0  0  0  0
    0.5560   -3.1420   31.1130 N   0  0  0  0  0  0  0  0  0  0  0  0
   -1.2560   -1.6060   30.5740 N   0  0  0  0  0  0  0  0  0  0  0  0
    0.5860   -6.1690   33.2430 N   0  0  0  0  0  0  0  0  0  0  0  0
   -0.7690   -2.1440   32.9670 O   0  0  0  0  0  0  0  0  0  0  0  0
   -1.7960   -3.8550   31.5150 O   0  0  0  0  0  0  0  0  0  0  0  0
   -0.9200   -2.7400   31.6770 S   0  0  2  0  0  0  0  0  0  0  0  0
  4  2  1  0
  6  4  2  0
  7  3  1  0
  7  1  2  0
  7  6  1  0
  8  1  1  0
  9  8  1  0
 10  9  1  0
 12 11  1  0
 13 12  1  0
 13  5  1  0
 14 10  1  0
 15 11  1  0
 15  5  1  0
 16  8  2  0
 16  4  1  0
 19 18  2  0
 19 15  1  0
 19 14  1  6
 19 17  2  0
M  END
>  <id>  (37) 
190

>  <inchikey>  (37) 
MHXZCOWLEYXUSF-UHFFFAOYSA-N

>  <alias>  (37) 
B1368a

>  <smiles>  (37) 
Cc1cc(O)nc(CCNS(=O)(=O)N2CCCC2)n1

>  <path>  (37) 
/opt/xchem-fragalysis-2/maxwin/BulkDock/TARGETS/D68EV3C/aligned_files/B1368a/B1368a.pdb

>  <distance_score>  (37) 
None

>  <energy_score>  (37) 
None

>  <compound>  (37) 
MHXZCOWLEYXUSF-UHFFFAOYSA-N

>  <compound_id>  (37) 
148

>  <target>  (37) 
D68EV3C

>  <tags>  (37) 
['[Other] upload_1 2025-02-11', 'hits', '[Other] iter1_frags']

>  <inspirations>  (37) 


>  <reference>  (37) 


>  <observation_longname>  (37) 
D68EV3CPROB-x1368_A_308_v1

>  <ConformerSites alias>  (37) 
1a - 7gp9/A/201

>  <CanonSites alias>  (37) 
1 - 7gp9/A/201/1

>  <CrystalformSites alias>  (37) 
F1f - 0446/A/209

>  <Quatassemblies alias>  (37) 
A1 - monomer

>  <Crystalforms alias>  (37) 
F1 - D68_3C_PROB

>  <ConformerSites upload name>  (37) 
1a - 7gp9/A/201

>  <CanonSites upload name>  (37) 
1 - 7gp9/A/201/1

>  <CrystalformSites upload name>  (37) 
F1f - D68EV3CPROB-x0446/A/209/1

>  <Quatassemblies upload name>  (37) 
A1 - monomer

>  <Crystalforms upload name>  (37) 
F1 - D68_3C_PROB

>  <ConformerSites short tag>  (37) 
1a - 7gp9/A/201

>  <CanonSites short tag>  (37) 
1 - 7gp9/A/201/1

>  <CrystalformSites short tag>  (37) 
F1f - 0446/A/209

>  <Quatassemblies short tag>  (37) 
A1 - monomer

>  <Crystalforms short tag>  (37) 
F1 - D68_3C_PROB

>  <Centroid res>  (37) 
7gp9/A/163/A_v1

>  <Experiment code>  (37) 
D68EV3CPROB-x1368

>  <Pose>  (37) 
B1368a

$$$$
B1456a
     RDKit          3D

 20 21  0  0  0  0  0  0  0  0999 V2000
   -0.4260   -7.0920   31.1510 N   0  0  0  0  0  0  0  0  0  0  0  0
   -0.3010   -6.3980   35.3460 C   0  0  0  0  0  0  0  0  0  0  0  0
   -2.0040   -8.7050   31.4070 O   0  0  0  0  0  0  0  0  0  0  0  0
   -0.3920   -6.6660   33.8740 C   0  0  0  0  0  0  0  0  0  0  0  0
   -1.9130   -0.0070   27.2880 C   0  0  0  0  0  0  0  0  0  0  0  0
   -1.2650   -7.6100   33.3570 C   0  0  0  0  0  0  0  0  0  0  0  0
   -1.2360   -7.7980   31.9590 C   0  0  0  0  0  0  0  0  0  0  0  0
    0.3610   -6.1970   31.7630 C   0  0  0  0  0  0  0  0  0  0  0  0
    1.2330   -5.3760   30.8630 C   0  0  0  0  0  0  0  0  0  0  0  0
    0.4920   -4.1110   30.4690 C   0  0  0  0  0  0  0  0  0  0  0  0
   -1.1250   -1.2920   30.4940 C   0  0  0  0  0  0  0  0  0  0  0  0
   -0.5330   -0.0250   30.6400 C   0  0  0  0  0  0  0  0  0  0  0  0
   -0.7300    0.6140   29.4530 C   0  0  0  0  0  0  0  0  0  0  0  0
    0.1510   -3.3030   31.6510 N   0  0  0  0  0  0  0  0  0  0  0  0
   -1.4220   -0.2630   28.6340 N   0  0  0  0  0  0  0  0  0  0  0  0
   -1.6800   -1.4580   29.2250 N   0  0  0  0  0  0  0  0  0  0  0  0
    0.4240   -5.9540   33.0790 N   0  0  0  0  0  0  0  0  0  0  0  0
   -1.1950   -1.6890   32.9150 O   0  0  0  0  0  0  0  0  0  0  0  0
   -2.2940   -3.3510   31.4480 O   0  0  0  0  0  0  0  0  0  0  0  0
   -1.2190   -2.4440   31.7000 S   0  0  1  0  0  0  0  0  0  0  0  0
  4  2  1  0
  6  4  2  0
  7  3  1  0
  7  1  2  0
  7  6  1  0
  8  1  1  0
  9  8  1  0
 10  9  1  0
 12 11  1  0
 13 12  2  0
 14 10  1  0
 15 13  1  0
 15  5  1  0
 16 15  1  0
 16 11  2  0
 17  8  2  0
 17  4  1  0
 20 19  2  0
 20 14  1  1
 20 11  1  0
 20 18  2  0
M  END
>  <id>  (38) 
194

>  <inchikey>  (38) 
VSFGQSDQUSDVDR-UHFFFAOYSA-N

>  <alias>  (38) 
B1456a

>  <smiles>  (38) 
Cc1cc(O)nc(CCNS(=O)(=O)c2ccn(C)n2)n1

>  <path>  (38) 
/opt/xchem-fragalysis-2/maxwin/BulkDock/TARGETS/D68EV3C/aligned_files/B1456a/B1456a.pdb

>  <distance_score>  (38) 
None

>  <energy_score>  (38) 
None

>  <compound>  (38) 
VSFGQSDQUSDVDR-UHFFFAOYSA-N

>  <compound_id>  (38) 
152

>  <target>  (38) 
D68EV3C

>  <tags>  (38) 
['[Other] upload_1 2025-02-11', 'hits', '[Other] iter1_frags']

>  <inspirations>  (38) 


>  <reference>  (38) 


>  <observation_longname>  (38) 
D68EV3CPROB-x1456_A_308_v1

>  <ConformerSites alias>  (38) 
1a - 7gp9/A/201

>  <CanonSites alias>  (38) 
1 - 7gp9/A/201/1

>  <CrystalformSites alias>  (38) 
F1f - 0446/A/209

>  <Quatassemblies alias>  (38) 
A1 - monomer

>  <Crystalforms alias>  (38) 
F1 - D68_3C_PROB

>  <ConformerSites upload name>  (38) 
1a - 7gp9/A/201

>  <CanonSites upload name>  (38) 
1 - 7gp9/A/201/1

>  <CrystalformSites upload name>  (38) 
F1f - D68EV3CPROB-x0446/A/209/1

>  <Quatassemblies upload name>  (38) 
A1 - monomer

>  <Crystalforms upload name>  (38) 
F1 - D68_3C_PROB

>  <ConformerSites short tag>  (38) 
1a - 7gp9/A/201

>  <CanonSites short tag>  (38) 
1 - 7gp9/A/201/1

>  <CrystalformSites short tag>  (38) 
F1f - 0446/A/209

>  <Quatassemblies short tag>  (38) 
A1 - monomer

>  <Crystalforms short tag>  (38) 
F1 - D68_3C_PROB

>  <Centroid res>  (38) 
7gp9/A/163/A_v1

>  <Experiment code>  (38) 
D68EV3CPROB-x1456

>  <Pose>  (38) 
B1456a

$$$$
B1457a
     RDKit          3D

 19 20  0  0  0  0  0  0  0  0999 V2000
   -0.4490   -6.9810   31.1520 N   0  0  0  0  0  0  0  0  0  0  0  0
   -0.4180   -6.3460   35.3480 C   0  0  0  0  0  0  0  0  0  0  0  0
   -1.9930   -8.6210   31.3940 O   0  0  0  0  0  0  0  0  0  0  0  0
   -0.4650   -6.6080   33.8780 C   0  0  0  0  0  0  0  0  0  0  0  0
   -1.2890   -7.5780   33.3390 C   0  0  0  0  0  0  0  0  0  0  0  0
   -1.2360   -7.7250   31.9500 C   0  0  0  0  0  0  0  0  0  0  0  0
    0.2940   -6.0670   31.7860 C   0  0  0  0  0  0  0  0  0  0  0  0
    1.1380   -5.1730   30.9290 C   0  0  0  0  0  0  0  0  0  0  0  0
    0.3330   -3.9480   30.5190 C   0  0  0  0  0  0  0  0  0  0  0  0
   -1.3020   -1.3260   30.2100 C   0  0  0  0  0  0  0  0  0  0  0  0
   -1.5270   -1.6670   28.9150 C   0  0  0  0  0  0  0  0  0  0  0  0
   -0.9600    0.6400   29.2490 C   0  0  0  0  0  0  0  0  0  0  0  0
   -0.1360   -3.1940   31.6930 N   0  0  0  0  0  0  0  0  0  0  0  0
   -0.9610    0.0220   30.3860 N   0  0  0  0  0  0  0  0  0  0  0  0
    0.3320   -5.8500   33.1050 N   0  0  0  0  0  0  0  0  0  0  0  0
   -2.5650   -3.1380   31.3860 O   0  0  0  0  0  0  0  0  0  0  0  0
   -1.4440   -1.3990   32.7330 O   0  0  0  0  0  0  0  0  0  0  0  0
   -1.4530   -2.2660   31.5950 S   0  0  2  0  0  0  0  0  0  0  0  0
   -1.3490   -0.3160   27.8890 S   0  0  0  0  0  0  0  0  0  0  0  0
  4  2  1  0
  5  4  2  0
  6  3  1  0
  6  1  2  0
  6  5  1  0
  7  1  1  0
  8  7  1  0
  9  8  1  0
 11 10  2  0
 13  9  1  0
 14 12  2  0
 14 10  1  0
 15  7  2  0
 15  4  1  0
 18 16  2  0
 18 13  1  1
 18 10  1  0
 18 17  2  0
 19 12  1  0
 19 11  1  0
M  END
>  <id>  (39) 
196

>  <inchikey>  (39) 
NFFNEEJNFLWXMI-UHFFFAOYSA-N

>  <alias>  (39) 
B1457a

>  <smiles>  (39) 
Cc1cc(O)nc(CCNS(=O)(=O)c2cscn2)n1

>  <path>  (39) 
/opt/xchem-fragalysis-2/maxwin/BulkDock/TARGETS/D68EV3C/aligned_files/B1457a/B1457a_hippo.pdb

>  <distance_score>  (39) 
None

>  <energy_score>  (39) 
None

>  <compound>  (39) 
NFFNEEJNFLWXMI-UHFFFAOYSA-N

>  <compound_id>  (39) 
153

>  <target>  (39) 
D68EV3C

>  <tags>  (39) 
['[Other] upload_1 2025-02-11', 'hits', '[Other] iter1_frags']

>  <inspirations>  (39) 


>  <reference>  (39) 


>  <observation_longname>  (39) 
D68EV3CPROB-x1457_A_308_v1

>  <ConformerSites alias>  (39) 
1a - 7gp9/A/201

>  <CanonSites alias>  (39) 
1 - 7gp9/A/201/1

>  <CrystalformSites alias>  (39) 
F1e - 0436/B/301

>  <Quatassemblies alias>  (39) 
A1 - monomer

>  <Crystalforms alias>  (39) 
F1 - D68_3C_PROB

>  <ConformerSites upload name>  (39) 
1a - 7gp9/A/201

>  <CanonSites upload name>  (39) 
1 - 7gp9/A/201/1

>  <CrystalformSites upload name>  (39) 
F1e - D68EV3CPROB-x0436/B/301/1

>  <Quatassemblies upload name>  (39) 
A1 - monomer

>  <Crystalforms upload name>  (39) 
F1 - D68_3C_PROB

>  <ConformerSites short tag>  (39) 
1a - 7gp9/A/201

>  <CanonSites short tag>  (39) 
1 - 7gp9/A/201/1

>  <CrystalformSites short tag>  (39) 
F1e - 0436/B/301

>  <Quatassemblies short tag>  (39) 
A1 - monomer

>  <Crystalforms short tag>  (39) 
F1 - D68_3C_PROB

>  <Centroid res>  (39) 
7gp9/A/163/A_v1

>  <Experiment code>  (39) 
D68EV3CPROB-x1457

>  <Pose>  (39) 
B1457a

$$$$
B1460a
     RDKit          3D

 20 21  0  0  0  0  0  0  0  0999 V2000
   -1.9700    1.1900   26.7420 N   0  0  0  0  0  0  0  0  0  0  0  0
   -1.7540    0.3980   27.8120 C   0  0  0  0  0  0  0  0  0  0  0  0
   -0.8550   -1.5970   32.4600 O   0  0  0  0  0  0  0  0  0  0  0  0
   -1.3110    0.9400   29.0420 C   0  0  0  0  0  0  0  0  0  0  0  0
   -1.7670   -1.7320   28.7200 C   0  0  0  0  0  0  0  0  0  0  0  0
   -1.1100    0.0910   30.1130 C   0  0  0  0  0  0  0  0  0  0  0  0
   -1.3340   -1.2670   29.9480 C   0  0  0  0  0  0  0  0  0  0  0  0
    0.5020   -4.0720   29.8470 C   0  0  0  0  0  0  0  0  0  0  0  0
    1.2360   -5.3480   30.2670 C   0  0  0  0  0  0  0  0  0  0  0  0
    0.4950   -6.1270   31.3100 C   0  0  0  0  0  0  0  0  0  0  0  0
    0.0300   -6.4940   33.5210 C   0  0  0  0  0  0  0  0  0  0  0  0
   -0.9370   -7.4280   33.2030 C   0  0  0  0  0  0  0  0  0  0  0  0
   -1.1190   -7.6660   31.8390 C   0  0  0  0  0  0  0  0  0  0  0  0
    0.3440   -3.1500   30.9860 N   0  0  0  0  0  0  0  0  0  0  0  0
    0.7610   -5.8360   32.6130 N   0  0  0  0  0  0  0  0  0  0  0  0
   -0.4070   -7.0220   30.8820 N   0  0  0  0  0  0  0  0  0  0  0  0
   -1.9830   -0.9290   27.6670 N   0  0  0  0  0  0  0  0  0  0  0  0
   -2.0860   -3.3680   31.2560 O   0  0  0  0  0  0  0  0  0  0  0  0
   -2.0040   -8.5410   31.4510 O   0  0  0  0  0  0  0  0  0  0  0  0
   -1.0510   -2.3820   31.2780 S   0  0  1  0  0  0  0  0  0  0  0  0
  2  1  1  0
  4  2  2  0
  6  4  1  0
  7  6  2  0
  7  5  1  0
  9  8  1  0
 10  9  1  0
 12 11  2  0
 13 12  1  0
 14  8  1  0
 15 10  2  0
 15 11  1  0
 16 13  2  0
 16 10  1  0
 17  5  2  0
 17  2  1  0
 19 13  1  0
 20 18  2  0
 20 14  1  6
 20  7  1  0
 20  3  2  0
M  END
>  <id>  (40) 
198

>  <inchikey>  (40) 
OCZUQLYBPXFJIF-UHFFFAOYSA-N

>  <alias>  (40) 
B1460a

>  <smiles>  (40) 
Nc1ccc(S(=O)(=O)NCCc2nccc(O)n2)cn1

>  <path>  (40) 
/opt/xchem-fragalysis-2/maxwin/BulkDock/TARGETS/D68EV3C/aligned_files/B1460a/B1460a_hippo.pdb

>  <distance_score>  (40) 
None

>  <energy_score>  (40) 
None

>  <compound>  (40) 
OCZUQLYBPXFJIF-UHFFFAOYSA-N

>  <compound_id>  (40) 
154

>  <target>  (40) 
D68EV3C

>  <tags>  (40) 
['[Other] upload_1 2025-02-11', 'hits', '[Other] iter1_frags']

>  <inspirations>  (40) 


>  <reference>  (40) 


>  <observation_longname>  (40) 
D68EV3CPROB-x1460_A_308_v1

>  <ConformerSites alias>  (40) 
1a - 7gp9/A/201

>  <CanonSites alias>  (40) 
1 - 7gp9/A/201/1

>  <CrystalformSites alias>  (40) 
F1f - 0446/A/209

>  <Quatassemblies alias>  (40) 
A1 - monomer

>  <Crystalforms alias>  (40) 
F1 - D68_3C_PROB

>  <ConformerSites upload name>  (40) 
1a - 7gp9/A/201

>  <CanonSites upload name>  (40) 
1 - 7gp9/A/201/1

>  <CrystalformSites upload name>  (40) 
F1f - D68EV3CPROB-x0446/A/209/1

>  <Quatassemblies upload name>  (40) 
A1 - monomer

>  <Crystalforms upload name>  (40) 
F1 - D68_3C_PROB

>  <ConformerSites short tag>  (40) 
1a - 7gp9/A/201

>  <CanonSites short tag>  (40) 
1 - 7gp9/A/201/1

>  <CrystalformSites short tag>  (40) 
F1f - 0446/A/209

>  <Quatassemblies short tag>  (40) 
A1 - monomer

>  <Crystalforms short tag>  (40) 
F1 - D68_3C_PROB

>  <Centroid res>  (40) 
7gp9/A/163/A_v1

>  <Experiment code>  (40) 
D68EV3CPROB-x1460

>  <Pose>  (40) 
B1460a

$$$$
B1462a
     RDKit          3D

 16 16  0  0  0  0  0  0  0  0999 V2000
   -1.2710   -7.6590   33.5380 N   0  0  0  0  0  0  0  0  0  0  0  0
    5.1820   -3.5970   29.4480 C   0  0  0  0  0  0  0  0  0  0  0  0
    4.2140   -4.8170   27.6170 O   0  0  0  0  0  0  0  0  0  0  0  0
    4.2230   -3.5300   28.3060 C   0  0  0  0  0  0  0  0  0  0  0  0
   -1.3780   -7.7640   32.2110 C   0  0  0  0  0  0  0  0  0  0  0  0
   -0.1740   -7.1310   30.1230 C   0  0  0  0  0  0  0  0  0  0  0  0
    3.4450   -5.7580   28.1740 C   0  0  0  0  0  0  0  0  0  0  0  0
    2.1200   -5.8230   27.5520 C   0  0  0  0  0  0  0  0  0  0  0  0
    1.2030   -6.6190   28.0840 C   0  0  0  0  0  0  0  0  0  0  0  0
    0.4790   -6.2160   29.2900 C   0  0  0  0  0  0  0  0  0  0  0  0
    0.5720   -4.8860   29.7010 C   0  0  0  0  0  0  0  0  0  0  0  0
    0.0770   -4.4940   30.9350 C   0  0  0  0  0  0  0  0  0  0  0  0
   -0.5370   -5.4150   31.7660 C   0  0  0  0  0  0  0  0  0  0  0  0
   -0.6760   -6.7400   31.3640 C   0  0  0  0  0  0  0  0  0  0  0  0
    3.8490   -6.5140   29.0170 O   0  0  0  0  0  0  0  0  0  0  0  0
   -2.0070   -8.6710   31.6600 O   0  0  0  0  0  0  0  0  0  0  0  0
  4  3  1  0
  4  2  1  0
  5  1  1  0
  7  3  1  0
  8  7  1  0
  9  8  2  3
 10  9  1  0
 10  6  2  0
 11 10  1  0
 12 11  2  0
 13 12  1  0
 14  6  1  0
 14  5  1  0
 14 13  2  0
 15  7  2  0
 16  5  2  0
M  END
>  <id>  (41) 
200

>  <inchikey>  (41) 
PCTAVPQJZOAOKC-UHFFFAOYSA-N

>  <alias>  (41) 
B1462a

>  <smiles>  (41) 
CCOC(=O)C=Cc1cccc(C(N)=O)c1

>  <path>  (41) 
/opt/xchem-fragalysis-2/maxwin/BulkDock/TARGETS/D68EV3C/aligned_files/B1462a/B1462a.pdb

>  <distance_score>  (41) 
None

>  <energy_score>  (41) 
None

>  <compound>  (41) 
PCTAVPQJZOAOKC-UHFFFAOYSA-N

>  <compound_id>  (41) 
155

>  <target>  (41) 
D68EV3C

>  <tags>  (41) 
['[Other] upload_1 2025-02-11', 'hits', '[Other] iter1_frags']

>  <inspirations>  (41) 


>  <reference>  (41) 


>  <observation_longname>  (41) 
D68EV3CPROB-x1462_A_308_v1

>  <ConformerSites alias>  (41) 
1a - 7gp9/A/201

>  <CanonSites alias>  (41) 
1 - 7gp9/A/201/1

>  <CrystalformSites alias>  (41) 
F1f - 0446/A/209

>  <Quatassemblies alias>  (41) 
A1 - monomer

>  <Crystalforms alias>  (41) 
F1 - D68_3C_PROB

>  <ConformerSites upload name>  (41) 
1a - 7gp9/A/201

>  <CanonSites upload name>  (41) 
1 - 7gp9/A/201/1

>  <CrystalformSites upload name>  (41) 
F1f - D68EV3CPROB-x0446/A/209/1

>  <Quatassemblies upload name>  (41) 
A1 - monomer

>  <Crystalforms upload name>  (41) 
F1 - D68_3C_PROB

>  <ConformerSites short tag>  (41) 
1a - 7gp9/A/201

>  <CanonSites short tag>  (41) 
1 - 7gp9/A/201/1

>  <CrystalformSites short tag>  (41) 
F1f - 0446/A/209

>  <Quatassemblies short tag>  (41) 
A1 - monomer

>  <Crystalforms short tag>  (41) 
F1 - D68_3C_PROB

>  <Centroid res>  (41) 
7gp9/A/163/A_v1

>  <Experiment code>  (41) 
D68EV3CPROB-x1462

>  <Pose>  (41) 
B1462a

$$$$
B1463a
     RDKit          3D

 20 21  0  0  0  0  0  0  0  0999 V2000
   -0.3120   -7.3570   31.3010 N   0  0  0  0  0  0  0  0  0  0  0  0
   -0.3680   -6.6230   35.4880 C   0  0  0  0  0  0  0  0  0  0  0  0
   -2.0940   -8.7200   31.4470 O   0  0  0  0  0  0  0  0  0  0  0  0
   -0.4080   -6.8910   34.0150 C   0  0  0  0  0  0  0  0  0  0  0  0
   -1.3090   -2.1020   29.3970 C   0  0  0  0  0  0  0  0  0  0  0  0
   -1.3430   -7.7430   33.4530 C   0  0  0  0  0  0  0  0  0  0  0  0
   -1.2440   -7.9490   32.0550 C   0  0  0  0  0  0  0  0  0  0  0  0
    0.5150   -6.5340   31.9520 C   0  0  0  0  0  0  0  0  0  0  0  0
    1.4620   -5.7650   31.0830 C   0  0  0  0  0  0  0  0  0  0  0  0
    0.6900   -4.5500   30.6250 C   0  0  0  0  0  0  0  0  0  0  0  0
   -0.0810   -0.6280   30.9280 C   0  0  0  0  0  0  0  0  0  0  0  0
   -0.3860    0.3740   29.8490 C   0  0  0  0  0  0  0  0  0  0  0  0
   -0.1770   -1.5770   28.5490 C   0  0  0  0  0  0  0  0  0  0  0  0
    0.4530   -3.6230   31.7380 N   0  0  0  0  0  0  0  0  0  0  0  0
   -1.0390   -1.7430   30.8030 N   0  0  0  0  0  0  0  0  0  0  0  0
    0.5220   -6.2760   33.2660 N   0  0  0  0  0  0  0  0  0  0  0  0
   -0.9420   -2.2360   33.2160 O   0  0  0  0  0  0  0  0  0  0  0  0
   -2.0160   -3.8560   31.6970 O   0  0  0  0  0  0  0  0  0  0  0  0
   -0.1250   -0.1510   28.5470 O   0  0  0  0  0  0  0  0  0  0  0  0
   -0.9890   -2.8990   31.9520 S   0  0  2  0  0  0  0  0  0  0  0  0
  4  2  1  0
  6  4  2  0
  7  3  1  0
  7  1  2  0
  7  6  1  0
  8  1  1  0
  9  8  1  0
 10  9  1  0
 12 11  1  0
 13  5  1  0
 14 10  1  0
 15 11  1  0
 15  5  1  0
 16  8  2  0
 16  4  1  0
 19 13  1  0
 19 12  1  0
 20 18  2  0
 20 15  1  0
 20 14  1  6
 20 17  2  0
M  END
>  <id>  (42) 
202

>  <inchikey>  (42) 
BDTWKIPTSXXQQL-UHFFFAOYSA-N

>  <alias>  (42) 
B1463a

>  <smiles>  (42) 
Cc1cc(O)nc(CCNS(=O)(=O)N2CCOCC2)n1

>  <path>  (42) 
/opt/xchem-fragalysis-2/maxwin/BulkDock/TARGETS/D68EV3C/aligned_files/B1463a/B1463a.pdb

>  <distance_score>  (42) 
None

>  <energy_score>  (42) 
None

>  <compound>  (42) 
BDTWKIPTSXXQQL-UHFFFAOYSA-N

>  <compound_id>  (42) 
156

>  <target>  (42) 
D68EV3C

>  <tags>  (42) 
['[Other] upload_1 2025-02-11', 'hits', '[Other] iter1_frags']

>  <inspirations>  (42) 


>  <reference>  (42) 


>  <observation_longname>  (42) 
D68EV3CPROB-x1463_A_308_v1

>  <ConformerSites alias>  (42) 
1a - 7gp9/A/201

>  <CanonSites alias>  (42) 
1 - 7gp9/A/201/1

>  <CrystalformSites alias>  (42) 
F1f - 0446/A/209

>  <Quatassemblies alias>  (42) 
A1 - monomer

>  <Crystalforms alias>  (42) 
F1 - D68_3C_PROB

>  <ConformerSites upload name>  (42) 
1a - 7gp9/A/201

>  <CanonSites upload name>  (42) 
1 - 7gp9/A/201/1

>  <CrystalformSites upload name>  (42) 
F1f - D68EV3CPROB-x0446/A/209/1

>  <Quatassemblies upload name>  (42) 
A1 - monomer

>  <Crystalforms upload name>  (42) 
F1 - D68_3C_PROB

>  <ConformerSites short tag>  (42) 
1a - 7gp9/A/201

>  <CanonSites short tag>  (42) 
1 - 7gp9/A/201/1

>  <CrystalformSites short tag>  (42) 
F1f - 0446/A/209

>  <Quatassemblies short tag>  (42) 
A1 - monomer

>  <Crystalforms short tag>  (42) 
F1 - D68_3C_PROB

>  <Centroid res>  (42) 
7gp9/A/163/A_v1

>  <Experiment code>  (42) 
D68EV3CPROB-x1463

>  <Pose>  (42) 
B1463a

$$$$
