7gpy_B_201_1_7goa+A+201+1__LIG
     RDKit          3D

 11 11  0  0  0  0  0  0  0  0999 V2000
  -11.8260  -33.7340   23.2550 C   0  0  0  0  0  0  0  0  0  0  0  0
  -10.7880  -33.4470   22.3960 C   0  0  0  0  0  0  0  0  0  0  0  0
   -9.5500  -34.0330   22.5380 C   0  0  0  0  0  0  0  0  0  0  0  0
   -9.3360  -34.9220   23.5760 C   0  0  0  0  0  0  0  0  0  0  0  0
  -11.6150  -34.6290   24.2900 C   0  0  0  0  0  0  0  0  0  0  0  0
   -8.9250  -36.4920   25.8180 O   0  0  0  0  0  0  0  0  0  0  0  0
  -10.1790  -36.3100   25.4840 C   0  0  0  0  0  0  0  0  0  0  0  0
  -11.1130  -36.9510   25.9580 O   0  0  0  0  0  0  0  0  0  0  0  0
  -10.3720  -35.2350   24.4750 C   0  0  0  0  0  0  0  0  0  0  0  0
  -11.0640  -32.2140   20.9820 Br  0  0  0  0  0  0  0  0  0  0  0  0
   -8.1040  -35.4700   23.7020 O   0  0  0  0  0  0  0  0  0  0  0  0
  1  5  2  0
  1  2  1  0
  5  9  1  0
 10  2  1  0
  2  3  2  0
  8  7  2  0
  9  7  1  0
  9  4  2  0
  7  6  1  0
  3  4  1  0
  4 11  1  0
M  END
$$$$
