D68EV3CPROB-x0839_B_207_1_7gp9+A+201+1__LIG
     RDKit          3D

 21 23  0  0  0  0  0  0  0  0999 V2000
    7.8340  -10.4360   26.4370 O   0  0  0  0  0  0  0  0  0  0  0  0
    7.4740   -9.2620   26.4410 C   0  0  0  0  0  0  0  0  0  0  0  0
    7.0790   -8.6400   25.2800 N   0  0  0  0  0  0  0  0  0  0  0  0
    6.6820   -7.3410   25.1810 C   0  0  0  0  0  0  0  0  0  0  0  0
    7.4400   -8.4160   27.6530 C   0  0  0  0  0  0  0  0  0  0  0  0
    7.0500   -7.0680   27.5720 C   0  0  0  0  0  0  0  0  0  0  0  0
    7.0470   -6.2850   28.7290 C   0  0  0  0  0  0  0  0  0  0  0  0
    7.4160   -6.8350   29.9440 C   0  0  0  0  0  0  0  0  0  0  0  0
    7.7840   -8.1610   30.0260 C   0  0  0  0  0  0  0  0  0  0  0  0
    7.7990   -8.9550   28.8910 C   0  0  0  0  0  0  0  0  0  0  0  0
    6.6520   -6.5330   26.2620 C   0  0  0  0  0  0  0  0  0  0  0  0
    6.2600   -5.2150   26.1910 N   0  0  0  0  0  0  0  0  0  0  0  0
    4.9550   -4.7960   26.2250 C   0  0  0  0  0  0  0  0  0  0  0  0
    3.9950   -5.5700   26.2520 O   0  0  0  0  0  0  0  0  0  0  0  0
    4.7740   -3.3220   26.1860 C   0  0  0  0  0  0  0  0  0  0  0  0
    3.7280   -2.7660   25.4690 N   0  0  0  0  0  0  0  0  0  0  0  0
    3.8230   -1.5110   25.7080 C   0  0  0  0  0  0  0  0  0  0  0  0
    4.8500   -1.1550   26.5190 O   0  0  0  0  0  0  0  0  0  0  0  0
    5.4590   -2.3470   26.8200 C   0  0  0  0  0  0  0  0  0  0  0  0
    6.6360   -2.2750   27.7260 C   0  0  0  0  0  0  0  0  0  0  0  0
    6.2940   -2.1790   29.1340 N   0  0  0  0  0  0  0  0  0  0  0  0
 21 20  1  0
 20 19  1  0
 19 18  1  0
 18 17  1  0
 17 16  2  0
 16 15  1  0
 19 15  2  0
 15 13  1  0
 14 13  2  0
 13 12  1  0
 12 11  1  0
 11  4  2  0
  4  3  1  0
  3  2  1  0
  2  1  2  0
  5  2  1  0
  5 10  2  0
 10  9  1  0
  9  8  2  0
  8  7  1  0
  7  6  2  0
 11  6  1  0
  6  5  1  0
M  END
$$$$
