7gpx_B_201_1_7gpx+B+201+1__LIG
     RDKit          3D

 10 10  0  0  0  0  0  0  0  0999 V2000
  -21.2670    2.5920   13.3200 C   0  0  0  0  0  0  0  0  0  0  0  0
  -20.0850    2.2050   12.7170 C   0  0  0  0  0  0  0  0  0  0  0  0
  -18.9290    2.1190   13.4740 C   0  0  0  0  0  0  0  0  0  0  0  0
  -20.1010    3.5390   17.8960 N   0  0  0  0  0  0  0  0  0  0  0  0
  -18.9370    2.4300   14.8400 C   0  0  0  0  0  0  0  0  0  0  0  0
  -17.7700    2.4380   15.6070 O   0  0  0  0  0  0  0  0  0  0  0  0
  -20.1570    2.7920   15.4380 C   0  0  0  0  0  0  0  0  0  0  0  0
  -20.1570    3.1930   16.8170 C   0  0  0  0  0  0  0  0  0  0  0  0
  -21.3330    2.8570   14.6770 C   0  0  0  0  0  0  0  0  0  0  0  0
  -22.7950    2.9230   12.2180 Br  0  0  0  0  0  0  0  0  0  0  0  0
 10  1  1  0
  1  9  2  0
  1  2  1  0
  9  7  1  0
  2  3  2  0
  7  8  1  0
  7  5  2  0
  8  4  3  0
  3  5  1  0
  5  6  1  0
M  END
$$$$
