7goq_A_201_1_7gp7+A+201+1__LIG
     RDKit          3D

 14 15  0  0  0  0  0  0  0  0999 V2000
  -12.8520  -24.3700    8.1630 N   0  0  0  0  0  0  0  0  0  0  0  0
   -9.3620  -22.5300   13.7560 C   0  0  0  0  0  0  0  0  0  0  0  0
  -10.2140  -21.6880   12.8870 C   0  0  0  0  0  0  0  0  0  0  0  0
  -12.0170  -25.8410    9.8880 C   0  0  0  0  0  0  0  0  0  0  0  0
  -11.7800  -26.8150    8.9200 C   0  0  0  0  0  0  0  0  0  0  0  0
  -12.1070  -26.5760    7.5910 C   0  0  0  0  0  0  0  0  0  0  0  0
  -12.5450  -24.6330    9.4390 C   0  0  0  0  0  0  0  0  0  0  0  0
  -11.7270  -24.9040   12.1940 N   0  0  0  0  0  0  0  0  0  0  0  0
  -12.8250  -27.0580   11.9730 C   0  0  0  0  0  0  0  0  0  0  0  0
   -9.7380  -24.1640   11.4330 O   0  0  0  0  0  0  0  0  0  0  0  0
  -11.7790  -26.1230   11.3710 C   0  0  1  0  0  0  0  0  0  0  0  0
  -10.6630  -24.0930   12.2320 C   0  0  0  0  0  0  0  0  0  0  0  0
  -10.6890  -23.0600   13.2800 C   0  0  0  0  0  0  0  0  0  0  0  0
  -12.6460  -25.3480    7.2600 C   0  0  0  0  0  0  0  0  0  0  0  0
  5  6  2  0
  5  4  1  0
 11  9  1  1
  6 14  1  0
 11  4  1  0
 11  8  1  0
  4  7  2  0
 14  1  2  0
  8 12  1  0
  7  1  1  0
 10 12  2  0
 12 13  1  0
 13  2  1  0
 13  3  1  0
  2  3  1  0
M  END
$$$$
