7gny_B_201_1_7gon+B+201+1__LIG
     RDKit          3D

 15 16  0  0  0  0  0  0  0  0999 V2000
   16.0910    1.4620   17.6320 C   0  0  0  0  0  0  0  0  0  0  0  0
   15.3360   -2.8110   17.1050 O   0  0  0  0  0  0  0  0  0  0  0  0
   14.5800   -1.8440   16.9900 C   0  0  0  0  0  0  0  0  0  0  0  0
   14.8440   -0.6340   17.5090 N   0  0  0  0  0  0  0  0  0  0  0  0
   16.1860   -0.0480   17.5030 C   0  0  2  0  0  0  0  0  0  0  0  0
   17.0480   -0.6300   18.6210 C   0  0  0  0  0  0  0  0  0  0  0  0
   16.6680   -0.1460   20.0230 C   0  0  0  0  0  0  0  0  0  0  0  0
   15.7380    1.0320   20.0470 C   0  0  0  0  0  0  0  0  0  0  0  0
   15.0240    1.2380   21.0250 O   0  0  0  0  0  0  0  0  0  0  0  0
   15.6990    1.8290   18.9910 N   0  0  0  0  0  0  0  0  0  0  0  0
   13.3120   -1.9430   16.2250 C   0  0  0  0  0  0  0  0  0  0  0  0
   12.6860   -3.1140   15.9470 C   0  0  0  0  0  0  0  0  0  0  0  0
   11.3550   -2.8420   14.9220 S   0  0  0  0  0  0  0  0  0  0  0  0
   11.7050   -1.1700   14.9440 C   0  0  0  0  0  0  0  0  0  0  0  0
   12.7380   -0.8170   15.6550 N   0  0  0  0  0  0  0  0  0  0  0  0
 12 13  1  0
 12 11  2  0
 13 14  1  0
  2  3  2  0
 11  3  1  0
 11 15  1  0
  3  4  1  0
 14 15  2  0
  1 10  1  0
  1  5  1  0
 10  8  1  0
  5  4  1  1
  5  6  1  0
  8  9  2  0
  8  7  1  0
  6  7  1  0
M  END
$$$$
