D68EV3CPROB-x1361_A_308_1_7gp9+A+201+1__LIG
     RDKit          3D

 20 21  0  0  0  0  0  0  0  0999 V2000
   -2.3530   -3.0450   31.3800 O   0  0  0  0  0  0  0  0  0  0  0  0
   -1.2920   -2.0830   31.3410 S   0  0  0  0  0  0  0  0  0  0  0  0
   -1.0960   -1.2220   32.4690 O   0  0  0  0  0  0  0  0  0  0  0  0
   -1.5270   -1.0700   29.9190 C   0  0  0  0  0  0  0  0  0  0  0  0
   -1.3130    0.2980   29.9990 C   0  0  0  0  0  0  0  0  0  0  0  0
   -1.5290    1.0890   28.8830 C   0  0  0  0  0  0  0  0  0  0  0  0
   -1.9690    0.5160   27.6980 C   0  0  0  0  0  0  0  0  0  0  0  0
   -2.2820    1.2950   26.6180 O   0  0  0  0  0  0  0  0  0  0  0  0
   -2.1590   -0.8560   27.6210 C   0  0  0  0  0  0  0  0  0  0  0  0
   -1.9390   -1.6510   28.7310 C   0  0  0  0  0  0  0  0  0  0  0  0
    0.0880   -2.8870   31.1210 N   0  0  0  0  0  0  0  0  0  0  0  0
    0.2710   -3.7500   29.9490 C   0  0  0  0  0  0  0  0  0  0  0  0
    1.0590   -4.9890   30.3170 C   0  0  0  0  0  0  0  0  0  0  0  0
    0.3100   -5.7580   31.3620 C   0  0  0  0  0  0  0  0  0  0  0  0
   -0.5150   -6.7200   30.9310 N   0  0  0  0  0  0  0  0  0  0  0  0
   -1.1300   -7.4580   31.8750 C   0  0  0  0  0  0  0  0  0  0  0  0
   -1.8740   -8.4400   31.4740 O   0  0  0  0  0  0  0  0  0  0  0  0
   -0.9580   -7.2300   33.2420 C   0  0  0  0  0  0  0  0  0  0  0  0
   -0.0910   -6.2040   33.5660 C   0  0  0  0  0  0  0  0  0  0  0  0
    0.5560   -5.4580   32.6610 N   0  0  0  0  0  0  0  0  0  0  0  0
  3  2  2  0
  2  1  2  0
 11  2  1  0
 12 11  1  0
 13 12  1  0
 14 13  1  0
 14 20  2  0
 20 19  1  0
 19 18  2  0
 18 16  1  0
 17 16  1  0
 16 15  2  0
 15 14  1  0
  4  2  1  0
  4 10  2  0
 10  9  1  0
  9  7  2  0
  8  7  1  0
  7  6  1  0
  6  5  2  0
  5  4  1  0
M  END
$$$$
