7gqh_A_201_1_7gp9+A+201+1__LIG
     RDKit          3D

 15 16  0  0  0  0  0  0  0  0999 V2000
   -1.3870   -7.6550   33.7650 C   0  0  0  0  0  0  0  0  0  0  0  0
    0.3530   -6.1180   37.8800 C   0  0  0  0  0  0  0  0  0  0  0  0
    0.2870   -5.8410   36.3950 C   0  0  0  0  0  0  0  0  0  0  0  0
   -0.3850   -4.5240   36.0700 C   0  0  0  0  0  0  0  0  0  0  0  0
    1.8450   -5.9550   34.5430 C   0  0  0  0  0  0  0  0  0  0  0  0
    0.7620   -6.5580   33.7710 C   0  0  0  0  0  0  0  0  0  0  0  0
    0.8470   -6.7210   32.3900 C   0  0  0  0  0  0  0  0  0  0  0  0
   -0.1780   -7.3690   31.7200 C   0  0  0  0  0  0  0  0  0  0  0  0
   -1.2950   -7.8480   32.3950 C   0  0  0  0  0  0  0  0  0  0  0  0
   -0.3610   -7.0260   34.4340 C   0  0  0  0  0  0  0  0  0  0  0  0
    1.6430   -5.8520   35.8880 O   0  0  0  0  0  0  0  0  0  0  0  0
    2.9020   -5.5660   34.1060 O   0  0  0  0  0  0  0  0  0  0  0  0
   -2.2570   -8.5200   31.7220 O   0  0  0  0  0  0  0  0  0  0  0  0
   -0.4680   -6.9210   35.8010 O   0  0  0  0  0  0  0  0  0  0  0  0
   -0.0440   -7.6220   29.8460 Br  0  0  0  0  0  0  0  0  0  0  0  0
  3  2  1  0
  4  3  1  0
 11  3  1  0
  5 11  1  0
 12  5  2  0
  6  5  1  0
  7  6  1  0
  8  7  2  0
 15  8  1  0
  9  8  1  0
 13  9  1  0
  1  9  2  0
 10  1  1  0
 14 10  1  0
  3 14  1  0
  6 10  2  0
M  END
$$$$
