7goy_A_201_1_7gp9+A+201+1__LIG
     RDKit          3D

 14 14  0  0  0  0  0  0  0  0999 V2000
   -1.1070    0.0340   31.3590 N   0  0  0  0  0  0  0  0  0  0  0  0
   -1.8670   -0.9920   31.0400 C   0  0  0  0  0  0  0  0  0  0  0  0
   -1.7140   -1.3620   29.6890 C   0  0  0  0  0  0  0  0  0  0  0  0
   -0.8050   -0.5060   29.1970 C   0  0  0  0  0  0  0  0  0  0  0  0
   -0.1370   -0.3500   27.8790 C   0  0  0  0  0  0  0  0  0  0  0  0
   -3.0260   -0.8940   33.1310 N   0  0  0  0  0  0  0  0  0  0  0  0
   -7.2220   -0.9230   35.3990 C   0  0  0  0  0  0  0  0  0  0  0  0
   -5.7760   -0.9880   35.4310 O   0  0  0  0  0  0  0  0  0  0  0  0
   -5.1420   -0.6870   34.3080 C   0  0  0  0  0  0  0  0  0  0  0  0
   -3.8330   -1.4120   34.2150 C   0  0  0  0  0  0  0  0  0  0  0  0
   -2.7340   -1.6350   32.0570 C   0  0  0  0  0  0  0  0  0  0  0  0
   -5.5530    0.0630   33.5040 O   0  0  0  0  0  0  0  0  0  0  0  0
   -3.1480   -2.7910   31.9080 O   0  0  0  0  0  0  0  0  0  0  0  0
   -0.4170    0.3530   30.1590 O   0  0  0  0  0  0  0  0  0  0  0  0
 14  1  1  0
 14  4  1  0
 12  9  2  0
  1  2  2  0
  6 10  1  0
  6 11  1  0
  4  5  1  0
  4  3  2  0
  9 10  1  0
  9  8  1  0
  2 11  1  0
  2  3  1  0
  7  8  1  0
 11 13  2  0
M  END
$$$$
