7gq6_B_201_1_7gpw+B+202+1__LIG
     RDKit          3D

 16 17  0  0  0  0  0  0  0  0999 V2000
  -10.1090    2.1460    7.5640 N   0  0  0  0  0  0  0  0  0  0  0  0
  -12.0860    1.1490   11.1070 C   0  0  0  0  0  0  0  0  0  0  0  0
  -12.0720    1.8870   12.2890 C   0  0  0  0  0  0  0  0  0  0  0  0
  -13.1470    1.8630   13.1560 C   0  0  0  0  0  0  0  0  0  0  0  0
  -10.4870    2.5970    9.9710 C   0  0  0  0  0  0  0  0  0  0  0  0
   -9.5300    2.6890    8.8040 C   0  0  0  0  0  0  0  0  0  0  0  0
  -10.9670    0.3850    9.0090 C   0  0  0  0  0  0  0  0  0  0  0  0
  -15.2400    1.5430   15.2130 O   0  0  0  0  0  0  0  0  0  0  0  0
  -15.6730    1.1660   13.8990 S   0  0  0  0  0  0  0  0  0  0  0  0
  -16.4000   -0.0610   13.7550 O   0  0  0  0  0  0  0  0  0  0  0  0
  -16.6370    2.4700   13.2310 C   0  0  0  0  0  0  0  0  0  0  0  0
  -14.2550    1.0990   12.8470 C   0  0  0  0  0  0  0  0  0  0  0  0
  -13.2080    0.3600   10.8270 C   0  0  0  0  0  0  0  0  0  0  0  0
  -14.2880    0.3330   11.6920 C   0  0  0  0  0  0  0  0  0  0  0  0
  -11.0090    1.2410   10.2000 N   0  0  0  0  0  0  0  0  0  0  0  0
  -11.2160    1.2160    7.7760 C   0  0  0  0  0  0  0  0  0  0  0  0
 10  9  2  0
 14 13  2  0
 14 12  1  0
  9  8  2  0
  9 12  1  0
  9 11  1  0
 13  2  1  0
 12  4  2  0
  5  6  1  0
  5 15  1  0
  2 15  1  0
  2  3  2  0
  6  1  1  0
  4  3  1  0
 15  7  1  0
  1 16  1  0
  7 16  1  0
M  END
$$$$
