7gp7_A_201_1_7gp7+A+201+1__LIG
     RDKit          3D

 14 14  0  0  0  0  0  0  0  0999 V2000
  -11.3650  -25.0000   13.1960 C   0  0  0  0  0  0  0  0  0  0  0  0
  -12.5190  -25.9670   12.9200 C   0  0  0  0  0  0  0  0  0  0  0  0
  -13.2600  -26.2720   14.2190 C   0  0  0  0  0  0  0  0  0  0  0  0
  -10.7350  -24.5180   11.9170 C   0  0  0  0  0  0  0  0  0  0  0  0
  -12.3160  -26.3110   15.3530 N   0  0  0  0  0  0  0  0  0  0  0  0
  -14.0880  -28.7860   18.0660 C   0  0  0  0  0  0  0  0  0  0  0  0
  -13.8390  -25.6410   17.1780 O   0  0  0  0  0  0  0  0  0  0  0  0
  -13.7130  -28.2150   16.7160 C   0  0  0  0  0  0  0  0  0  0  0  0
  -10.9710  -26.7610   14.9440 C   0  0  0  0  0  0  0  0  0  0  0  0
  -10.3220  -25.6840   14.0870 C   0  0  0  0  0  0  0  0  0  0  0  0
  -11.7430  -26.8140   17.7020 O   0  0  0  0  0  0  0  0  0  0  0  0
  -11.3330  -24.4380   10.8670 O   0  0  0  0  0  0  0  0  0  0  0  0
   -9.4970  -24.1970   12.0780 O   0  0  0  0  0  0  0  0  0  0  0  0
  -12.8790  -26.6490   16.8530 S   0  0  0  0  0  0  0  0  0  0  0  0
  6  8  1  0
  8 14  1  0
  9  5  1  0
  9 10  1  0
 11 14  2  0
 14  5  1  0
 14  7  2  0
  5  3  1  0
  3  2  1  0
  2  1  1  0
 10  1  1  0
  1  4  1  0
  4 12  2  0
  4 13  1  0
M  END
$$$$
