D68EV3CPROB-x0878_A_309_1_D68EV3CPROB-x0878+A+309+1__LIG
     RDKit          3D

 24 27  0  0  0  0  0  0  0  0999 V2000
  -28.3660  -17.4920   33.4730 O   0  0  0  0  0  0  0  0  0  0  0  0
  -27.8430  -17.3900   32.3670 C   0  0  0  0  0  0  0  0  0  0  0  0
  -28.5360  -17.7160   31.2180 N   0  0  0  0  0  0  0  0  0  0  0  0
  -28.0250  -17.6810   29.9560 C   0  0  0  0  0  0  0  0  0  0  0  0
  -26.4510  -16.9410   32.1600 C   0  0  0  0  0  0  0  0  0  0  0  0
  -25.9050  -16.8840   30.8630 C   0  0  0  0  0  0  0  0  0  0  0  0
  -24.6030  -16.4170   30.6900 C   0  0  0  0  0  0  0  0  0  0  0  0
  -23.8670  -15.9880   31.7800 C   0  0  0  0  0  0  0  0  0  0  0  0
  -24.3960  -16.0520   33.0510 C   0  0  0  0  0  0  0  0  0  0  0  0
  -25.6790  -16.5310   33.2510 C   0  0  0  0  0  0  0  0  0  0  0  0
  -26.7550  -17.2780   29.7230 C   0  0  0  0  0  0  0  0  0  0  0  0
  -26.2410  -17.1400   28.4360 N   0  0  0  0  0  0  0  0  0  0  0  0
  -26.2920  -15.9290   27.8080 C   0  0  0  0  0  0  0  0  0  0  0  0
  -26.8020  -14.9440   28.3350 O   0  0  0  0  0  0  0  0  0  0  0  0
  -25.6920  -15.8660   26.4220 C   0  0  0  0  0  0  0  0  0  0  0  0
  -24.6600  -14.7280   26.1980 C   0  0  0  0  0  0  0  0  0  0  0  0
  -24.2310  -14.5140   24.7290 C   0  0  0  0  0  0  0  0  0  0  0  0
  -25.1960  -13.3950   24.6400 N   0  0  0  0  0  0  0  0  0  0  0  0
  -25.2750  -13.3080   26.1160 C   0  0  0  0  0  0  0  0  0  0  0  0
  -23.5610  -14.8460   27.2270 C   0  0  0  0  0  0  0  0  0  0  0  0
  -23.5830  -14.1500   28.3160 N   0  0  0  0  0  0  0  0  0  0  0  0
  -22.4380  -14.5180   29.0480 O   0  0  0  0  0  0  0  0  0  0  0  0
  -21.7610  -15.4350   28.3470 C   0  0  0  0  0  0  0  0  0  0  0  0
  -22.4030  -15.6860   27.2030 C   0  0  0  0  0  0  0  0  0  0  0  0
 14 13  2  0
 15 13  1  0
 16 15  1  0
 20 16  1  0
 20 24  1  0
 24 23  2  0
 23 22  1  0
 22 21  1  0
 21 20  2  0
 16 19  1  0
 19 18  1  0
 18 17  1  0
 17 16  1  0
 13 12  1  0
 12 11  1  0
 11  4  2  0
  4  3  1  0
  3  2  1  0
  2  1  2  0
  5  2  1  0
  5 10  2  0
 10  9  1  0
  9  8  2  0
  8  7  1  0
  7  6  2  0
 11  6  1  0
  6  5  1  0
M  END
$$$$
