7gpn_A_201_1_7gpw+B+202+1__LIG
     RDKit          3D

 10 11  0  0  0  0  0  0  0  0999 V2000
   -7.6420   -0.9890    7.9350 N   0  0  0  0  0  0  0  0  0  0  0  0
   -5.7510   -1.3920    6.8900 N   0  0  0  0  0  0  0  0  0  0  0  0
   -4.1040    0.2960    6.4430 C   0  0  0  0  0  0  0  0  0  0  0  0
   -4.3570   -1.1890    6.4670 C   0  0  0  0  0  0  0  0  0  0  0  0
   -7.7560   -2.1900    7.2390 N   0  0  0  0  0  0  0  0  0  0  0  0
   -6.2840   -3.5630    5.7750 C   0  0  0  0  0  0  0  0  0  0  0  0
   -6.6180   -2.3990    6.6300 C   0  0  0  0  0  0  0  0  0  0  0  0
   -6.4380   -0.5310    7.7010 C   0  0  0  0  0  0  0  0  0  0  0  0
   -5.7820    0.7320    8.1380 C   0  0  0  0  0  0  0  0  0  0  0  0
   -4.3880    0.9160    7.7390 N   0  0  0  0  0  0  0  0  0  0  0  0
  6  7  1  0
  7  5  2  0
  7  2  1  0
  5  1  1  0
  2  4  1  0
  2  8  1  0
  4  3  1  0
  1  8  2  0
  8  9  1  0
  3 10  1  0
  9 10  1  0
M  END
$$$$
