7gpl_A_201_1_D68EV3CPROB-x1120+A+308+1__LIG
     RDKit          3D

 10 10  0  0  0  0  0  0  0  0999 V2000
  -11.6970  -24.5560   33.8650 N   0  0  0  0  0  0  0  0  0  0  0  0
  -10.7260  -25.0460   32.0270 C   0  0  0  0  0  0  0  0  0  0  0  0
  -12.3360  -23.8330   32.9420 C   0  0  0  0  0  0  0  0  0  0  0  0
  -10.7050  -25.3050   33.3300 N   0  0  0  0  0  0  0  0  0  0  0  0
  -11.3120  -24.8210   27.1190 C   0  0  0  0  0  0  0  0  0  0  0  0
  -11.4710  -24.1020   29.3930 O   0  0  0  0  0  0  0  0  0  0  0  0
  -12.0450  -23.9450   28.0570 C   0  0  0  0  0  0  0  0  0  0  0  0
  -12.1660  -23.5760   30.4140 C   0  0  0  0  0  0  0  0  0  0  0  0
  -11.7420  -24.1210   31.7200 C   0  0  0  0  0  0  0  0  0  0  0  0
  -13.0430  -22.7530   30.2820 O   0  0  0  0  0  0  0  0  0  0  0  0
  4  1  1  0
  4  2  2  0
  1  3  1  0
  2  9  1  0
  3  9  2  0
  9  8  1  0
  6  8  1  0
  6  7  1  0
  8 10  2  0
  7  5  1  0
M  END
$$$$
