D68EV3CPROB-x1081_A_308_1_D68EV3CPROB-x1081+A+308+1__LIG
     RDKit          3D

 19 20  0  0  0  0  0  0  0  0999 V2000
  -23.1640  -13.6310    8.7090 O   0  0  0  0  0  0  0  0  0  0  0  0
  -22.5410  -14.6850    8.8140 C   0  0  0  0  0  0  0  0  0  0  0  0
  -22.6170  -15.6520    7.8950 N   0  0  0  0  0  0  0  0  0  0  0  0
  -21.9540  -16.9540    7.9610 C   0  0  0  0  0  0  0  0  0  0  0  0
  -20.4430  -16.9300    7.8130 C   0  0  0  0  0  0  0  0  0  0  0  0
  -19.7750  -15.7720    8.5570 C   0  0  0  0  0  0  0  0  0  0  0  0
  -20.3950  -15.4690    9.9010 C   0  0  0  0  0  0  0  0  0  0  0  0
  -19.6740  -15.7460   11.0570 C   0  0  0  0  0  0  0  0  0  0  0  0
  -21.6810  -14.9170   10.0090 C   0  0  0  0  0  0  0  0  0  0  0  0
  -22.2090  -14.6230   11.2710 C   0  0  0  0  0  0  0  0  0  0  0  0
  -21.4750  -14.8940   12.4120 C   0  0  0  0  0  0  0  0  0  0  0  0
  -22.1070  -14.8980   13.6770 O   0  0  0  0  0  0  0  0  0  0  0  0
  -21.9900  -13.7290   14.7240 S   0  0  0  0  0  0  0  0  0  0  0  0
  -22.9290  -12.7140   13.9760 F   0  0  0  0  0  0  0  0  0  0  0  0
  -20.6980  -13.1970   14.6710 O   0  0  0  0  0  0  0  0  0  0  0  0
  -22.6470  -14.0880   15.9030 O   0  0  0  0  0  0  0  0  0  0  0  0
  -20.1990  -15.4710   12.3050 C   0  0  0  0  0  0  0  0  0  0  0  0
  -19.5840  -15.7600   13.4910 O   0  0  0  0  0  0  0  0  0  0  0  0
  -18.1990  -15.4440   13.6130 C   0  0  0  0  0  0  0  0  0  0  0  0
 19 18  1  0
 18 17  1  0
 17  8  2  0
  8  7  1  0
  7  9  2  0
 10  9  1  0
 11 10  2  0
 17 11  1  0
 12 11  1  0
 13 12  1  0
 16 13  2  0
 15 13  2  0
 14 13  1  0
  9  2  1  0
  2  1  2  0
  3  2  1  0
  4  3  1  0
  5  4  1  0
  6  5  1  0
  7  6  1  0
M  END
$$$$
