D68EV3CPROB-x1403_A_308_1_D68EV3CPROB-x0798+A+308+1__LIG
     RDKit          3D

 17 18  0  0  0  0  0  0  0  0999 V2000
  -21.7010   -4.0490   17.6260 O   0  0  0  0  0  0  0  0  0  0  0  0
  -21.8850   -2.6870   17.2360 S   0  0  0  0  0  0  0  0  0  0  0  0
  -21.2050   -1.6500   17.9480 O   0  0  0  0  0  0  0  0  0  0  0  0
  -21.5230   -2.5700   15.6210 N   0  0  0  0  0  0  0  0  0  0  0  0
  -22.0180   -3.6250   14.7140 C   0  0  0  0  0  0  0  0  0  0  0  0
  -21.3090   -3.5160   13.3770 C   0  0  0  0  0  0  0  0  0  0  0  0
  -21.4820   -2.1750   12.7950 N   0  0  0  0  0  0  0  0  0  0  0  0
  -20.9500   -1.1600   13.7090 C   0  0  0  0  0  0  0  0  0  0  0  0
  -21.6600   -1.2180   15.0440 C   0  0  0  0  0  0  0  0  0  0  0  0
  -23.4830   -2.3670   17.3010 N   0  0  0  0  0  0  0  0  0  0  0  0
  -24.4990   -3.2250   17.9010 C   0  0  0  0  0  0  0  0  0  0  0  0
  -25.7570   -3.3640   17.1040 C   0  0  0  0  0  0  0  0  0  0  0  0
  -26.1780   -2.6540   15.9690 C   0  0  0  0  0  0  0  0  0  0  0  0
  -26.6470   -4.2350   17.4820 N   0  0  0  0  0  0  0  0  0  0  0  0
  -27.7180   -4.0950   16.5640 O   0  0  0  0  0  0  0  0  0  0  0  0
  -27.3940   -3.1420   15.6800 C   0  0  0  0  0  0  0  0  0  0  0  0
  -28.4090   -2.8510   14.6370 C   0  0  0  0  0  0  0  0  0  0  0  0
 17 16  1  0
 16 13  2  0
 13 12  1  0
 12 11  1  0
 11 10  1  0
 10  2  1  0
  3  2  2  0
  2  1  2  0
  4  2  1  0
  4  9  1  0
  9  8  1  0
  8  7  1  0
  7  6  1  0
  6  5  1  0
  5  4  1  0
 14 12  2  0
 15 14  1  0
 16 15  1  0
M  END
$$$$
