7gpf_A_201_1_7gp9+A+201+1__LIG
     RDKit          3D

 15 16  0  0  0  0  0  0  0  0999 V2000
   -1.1510    1.5180   26.9700 N   0  0  0  0  0  0  0  0  0  0  0  0
    1.9860    5.6130   26.5050 C   0  0  0  0  0  0  0  0  0  0  0  0
    1.9960    4.4330   27.2360 C   0  0  0  0  0  0  0  0  0  0  0  0
   -0.4440    3.9850   27.3090 C   0  0  0  0  0  0  0  0  0  0  0  0
   -1.3510    2.8350   27.5690 C   0  0  1  0  0  0  0  0  0  0  0  0
   -2.8160    3.1550   27.7470 C   0  0  0  0  0  0  0  0  0  0  0  0
   -2.5130    1.0360   26.6700 C   0  0  0  0  0  0  0  0  0  0  0  0
    0.8580    3.6690   27.4900 N   0  0  0  0  0  0  0  0  0  0  0  0
    5.5020    3.4760   27.5060 C   0  0  0  0  0  0  0  0  0  0  0  0
   -0.8930    5.0580   26.9140 O   0  0  0  0  0  0  0  0  0  0  0  0
    4.2820    4.2440   27.1140 C   0  0  0  0  0  0  0  0  0  0  0  0
    4.3590    5.3980   26.3370 C   0  0  0  0  0  0  0  0  0  0  0  0
    3.1970    6.0830   26.0360 C   0  0  0  0  0  0  0  0  0  0  0  0
   -3.4590    2.2470   26.7270 C   0  0  0  0  0  0  0  0  0  0  0  0
    3.1100    3.7730   27.5620 N   0  0  0  0  0  0  0  0  0  0  0  0
  7  1  1  0
  7 14  1  0
  1  5  1  0
 14  6  1  0
  5  6  1  0
  5  4  1  6
  9 11  1  0
 15 11  2  0
 15  3  1  0
  8  4  1  0
  8  3  1  0
 11 12  1  0
  4 10  2  0
  3  2  2  0
 12 13  2  0
  2 13  1  0
M  END
$$$$
