7gq7_A_201_1_7gp9+A+201+1__LIG
     RDKit          3D

 14 14  0  0  0  0  0  0  0  0999 V2000
   -4.0660   10.3230   25.9370 C   0  0  0  0  0  0  0  0  0  0  0  0
   -4.6180    8.9060   24.0590 C   0  0  0  0  0  0  0  0  0  0  0  0
   -1.7070   10.6480   26.5810 N   0  0  0  0  0  0  0  0  0  0  0  0
   -2.7090   10.0720   25.7430 C   0  0  0  0  0  0  0  0  0  0  0  0
   -5.0110    9.7470   25.1010 C   0  0  0  0  0  0  0  0  0  0  0  0
   -5.6200    8.2330   23.1860 C   0  0  0  0  0  0  0  0  0  0  0  0
   -3.2630    8.6510   23.8840 C   0  0  0  0  0  0  0  0  0  0  0  0
    0.0760    8.6480   26.9360 C   0  0  0  0  0  0  0  0  0  0  0  0
   -2.3170    9.2280   24.7130 C   0  0  0  0  0  0  0  0  0  0  0  0
   -5.1020    7.3940   22.3290 O   0  0  0  0  0  0  0  0  0  0  0  0
   -6.8160    8.4600   23.2790 O   0  0  0  0  0  0  0  0  0  0  0  0
   -1.0360    9.7370   27.7470 S   0  0  0  0  0  0  0  0  0  0  0  0
   -0.3220   10.5750   28.6670 O   0  0  0  0  0  0  0  0  0  0  0  0
   -2.1550    8.9810   28.2260 O   0  0  0  0  0  0  0  0  0  0  0  0
  1  4  2  0
  1  5  1  0
  2  5  2  0
  2  6  1  0
  2  7  1  0
  3  4  1  0
  3 12  1  0
  4  9  1  0
  6 10  2  0
  6 11  1  0
  7  9  2  0
  8 12  1  0
 12 13  2  0
 12 14  2  0
M  END
$$$$
