7gp9_A_201_1_7gp9+A+201+1__LIG
     RDKit          3D

 16 17  0  0  0  0  0  0  0  0999 V2000
    0.6840   -0.0070   28.3420 C   0  0  0  0  0  0  0  0  0  0  0  0
    0.3670    1.2690   27.9040 C   0  0  0  0  0  0  0  0  0  0  0  0
   -0.8920    1.4700   27.3700 C   0  0  0  0  0  0  0  0  0  0  0  0
   -1.7910    0.4380   27.2630 C   0  0  0  0  0  0  0  0  0  0  0  0
   -1.4910   -0.8250   27.7220 C   0  0  0  0  0  0  0  0  0  0  0  0
   -0.9470   -2.9450   29.6400 N   0  0  0  0  0  0  0  0  0  0  0  0
   -2.1700   -0.3300   31.4160 C   0  0  0  0  0  0  0  0  0  0  0  0
    0.3340   -3.3310   31.7260 O   0  0  0  0  0  0  0  0  0  0  0  0
   -0.8360   -1.0060   31.6160 C   0  0  0  0  0  0  0  0  0  0  0  0
    0.1310   -2.4250   28.7870 C   0  0  0  0  0  0  0  0  0  0  0  0
   -0.2320   -1.0560   28.2710 C   0  0  0  0  0  0  0  0  0  0  0  0
   -2.7670    2.2810   26.4600 C   0  0  0  0  0  0  0  0  0  0  0  0
   -2.1420   -3.2780   31.7870 O   0  0  0  0  0  0  0  0  0  0  0  0
   -2.9180    0.8630   26.5970 O   0  0  0  0  0  0  0  0  0  0  0  0
   -1.4630    2.6420   26.9260 O   0  0  0  0  0  0  0  0  0  0  0  0
   -0.9030   -2.7580   31.2800 S   0  0  0  0  0  0  0  0  0  0  0  0
  8 16  2  0
  7  9  1  0
  9 16  1  0
 16 13  2  0
 16  6  1  0
  6 10  1  0
 10 11  1  0
 11  5  1  0
 11  1  2  0
  5  4  2  0
  1  2  1  0
  4 14  1  0
  4  3  1  0
 14 12  1  0
  2  3  2  0
  3 15  1  0
 12 15  1  0
M  END
$$$$
