ver_1.2
     RDKit          3D

 34 38  0  0  0  0  0  0  0  0999 V2000
    1.9100   -1.9888    1.5735 O   0  0  0  0  0  0  0  0  0  0  0  0
    0.8456   -1.7895    0.9294 C   0  0  0  0  0  0  0  0  0  0  0  0
   -0.4290   -1.6656    1.6687 C   0  0  0  0  0  0  0  0  0  0  0  0
   -1.0466   -0.3080    1.3094 C   0  0  0  0  0  0  0  0  0  0  0  0
   -2.1624   -0.1356    2.2189 N   0  0  0  0  0  0  0  0  0  0  0  0
   -2.6265    1.5121    2.3574 S   0  0  0  0  0  0  0  0  0  0  0  0
   -1.4681    2.2926    2.8794 O   0  0  0  0  0  0  0  0  0  0  0  0
   -3.7416    1.6314    3.3560 O   0  0  0  0  0  0  0  0  0  0  0  0
   -3.1443    2.1415    0.8380 N   0  0  0  0  0  0  0  0  0  0  0  0
   -2.1040    2.1038   -0.1379 C   0  0  0  0  0  0  0  0  0  0  0  0
   -2.6680    2.5753   -1.4658 C   0  0  0  0  0  0  0  0  0  0  0  0
   -3.7648    1.7278   -1.9145 N   0  0  0  0  0  0  0  0  0  0  0  0
   -4.8305    1.8135   -0.9197 C   0  0  0  0  0  0  0  0  0  0  0  0
   -4.3002    1.3588    0.4221 C   0  0  0  0  0  0  0  0  0  0  0  0
   -3.2475   -0.9610    1.7370 C   0  0  0  0  0  0  0  0  0  0  0  0
   -2.7715   -2.2948    1.3542 C   0  0  0  0  0  0  0  0  0  0  0  0
   -3.4997   -3.3811    0.9842 N   0  0  0  0  0  0  0  0  0  0  0  0
   -2.6545   -4.3515    0.7316 N   0  0  0  0  0  0  0  0  0  0  0  0
   -1.3968   -3.9524    0.9192 N   0  0  0  0  0  0  0  0  0  0  0  0
   -1.4440   -2.6708    1.3085 C   0  0  0  0  0  0  0  0  0  0  0  0
    0.8324   -1.6799   -0.4894 N   0  0  0  0  0  0  0  0  0  0  0  0
   -0.3918   -1.4513   -1.2230 C   0  0  0  0  0  0  0  0  0  0  0  0
   -0.1746   -0.8540   -2.5727 C   0  0  0  0  0  0  0  0  0  0  0  0
    1.0662   -0.0465   -2.7302 C   0  0  0  0  0  0  0  0  0  0  0  0
    2.2939   -0.6662   -2.1771 C   0  0  0  0  0  0  0  0  0  0  0  0
    3.3364    0.2800   -1.7623 C   0  0  0  0  0  0  0  0  0  0  0  0
    3.0806    1.1031   -0.6790 C   0  0  0  0  0  0  0  0  0  0  0  0
    3.9964    2.0169   -0.2220 C   0  0  0  0  0  0  0  0  0  0  0  0
    5.2184    2.1073   -0.8800 C   0  0  0  0  0  0  0  0  0  0  0  0
    6.1712    3.1218   -0.3330 C   0  0  0  0  0  0  0  0  0  0  0  0
    6.9568    2.4871    0.6483 O   0  0  0  0  0  0  0  0  0  0  0  0
    5.5175    1.3113   -1.9597 C   0  0  0  0  0  0  0  0  0  0  0  0
    4.5650    0.4118   -2.3778 C   0  0  0  0  0  0  0  0  0  0  0  0
    2.0760   -1.7991   -1.2320 C   0  0  0  0  0  0  0  0  0  0  0  0
  1  2  2  0
  2  3  1  0
  3  4  1  0
  4  5  1  0
  5  6  1  0
  6  7  2  0
  6  8  2  0
  6  9  1  0
  9 10  1  0
 10 11  1  0
 11 12  1  0
 12 13  1  0
 13 14  1  0
  5 15  1  0
 15 16  1  0
 16 17  1  0
 17 18  2  0
 18 19  1  0
 19 20  1  0
  2 21  1  0
 21 22  1  0
 22 23  1  0
 23 24  1  0
 24 25  1  0
 25 26  1  0
 26 27  2  0
 27 28  1  0
 28 29  2  0
 29 30  1  0
 30 31  1  0
 29 32  1  0
 32 33  2  0
 25 34  1  0
 20  3  1  0
 34 21  1  0
 14  9  1  0
 20 16  2  0
 33 26  1  0
M  END
>  <ref_url>  (1) 
https://github.com/mwinokan/BulkDock

>  <submitter_name>  (1) 
Max Winokan

>  <submitter_email>  (1) 
max.winokan@diamond.ac.uk

>  <submitter_institution>  (1) 
DLS

>  <generation_date>  (1) 
2025-03-04

>  <method>  (1) 
iter1_fstein

>  <SLURM_JOB_ID>  (1) 
SLURM_JOB_ID

>  <SLURM_JOB_NAME>  (1) 
SLURM_JOB_NAME

>  <csv_name>  (1) 
csv_name

>  <scratch_subdir>  (1) 
scratch_subdir

>  <fragmenstein_runtime>  (1) 
fragmenstein_runtime

>  <fragmenstein_outcome>  (1) 
fragmenstein_outcome

>  <fragmenstein_mode>  (1) 
fragmenstein_mode

>  <fragmenstein_error>  (1) 
fragmenstein_error

>  <exports>  (1) 
exports

>  <score_inspiration>  (1) 
score_inspiration

>  <HIPPO Pose ID>  (1) 
HIPPO Pose ID

>  <HIPPO Compound ID>  (1) 
HIPPO Compound ID

>  <smiles>  (1) 
smiles

>  <ref_pdb>  (1) 
protein reference

>  <ref_mols>  (1) 
fragment inspirations

>  <original ID>  (1) 
original ID

>  <compound inchikey>  (1) 
compound inchikey

$$$$
203
     RDKit          3D

 34 38  0  0  0  0  0  0  0  0999 V2000
    0.5263   -2.9030   32.7071 O   0  0  0  0  0  0  0  0  0  0  0  0
    0.5489   -3.8835   32.0546 C   0  0  0  0  0  0  0  0  0  0  0  0
    0.7953   -5.2603   32.7014 C   0  0  1  0  0  0  0  0  0  0  0  0
    0.6446   -5.0798   34.2382 C   0  0  0  0  0  0  0  0  0  0  0  0
    0.4682   -6.3829   34.9552 N   0  0  0  0  0  0  0  0  0  0  0  0
    0.9727   -6.4250   36.5461 S   0  0  0  0  0  0  0  0  0  0  0  0
    2.4159   -6.3605   36.4924 O   0  0  0  0  0  0  0  0  0  0  0  0
    0.2829   -7.4863   37.2329 O   0  0  0  0  0  0  0  0  0  0  0  0
    0.4219   -4.9536   37.1331 N   0  0  0  0  0  0  0  0  0  0  0  0
    1.2792   -4.3377   38.1954 C   0  0  0  0  0  0  0  0  0  0  0  0
    0.4809   -3.4693   39.1904 C   0  0  0  0  0  0  0  0  0  0  0  0
   -0.5035   -2.5894   38.5515 N   0  0  0  0  0  0  0  0  0  0  0  0
   -1.3926   -3.3482   37.6558 C   0  0  0  0  0  0  0  0  0  0  0  0
   -1.0217   -4.8292   37.4264 C   0  0  0  0  0  0  0  0  0  0  0  0
   -0.7426   -7.1668   34.5869 C   0  0  0  0  0  0  0  0  0  0  0  0
   -0.8230   -7.1927   33.0986 C   0  0  0  0  0  0  0  0  0  0  0  0
   -1.5328   -8.0779   32.3404 N   0  0  0  0  0  0  0  0  0  0  0  0
   -1.3087   -7.7918   31.0590 N   0  0  0  0  0  0  0  0  0  0  0  0
   -0.4755   -6.7358   31.0170 N   0  0  0  0  0  0  0  0  0  0  0  0
   -0.1491   -6.3278   32.2686 C   0  0  0  0  0  0  0  0  0  0  0  0
    0.3737   -4.0718   30.5527 N   0  0  0  0  0  0  0  0  0  0  0  0
    1.7151   -3.9906   29.8249 C   0  0  0  0  0  0  0  0  0  0  0  0
    2.6082   -2.7630   30.0487 C   0  0  0  0  0  0  0  0  0  0  0  0
    1.9836   -1.5605   29.3821 C   0  0  0  0  0  0  0  0  0  0  0  0
    0.4877   -1.5977   29.6762 C   0  0  1  0  0  0  0  0  0  0  0  0
   -0.2517   -0.5252   28.8978 C   0  0  0  0  0  0  0  0  0  0  0  0
   -1.2632   -0.8150   27.9819 C   0  0  0  0  0  0  0  0  0  0  0  0
   -1.9131    0.2041   27.2834 C   0  0  0  0  0  0  0  0  0  0  0  0
   -1.6191    1.5451   27.5196 C   0  0  0  0  0  0  0  0  0  0  0  0
   -2.3823    2.6277   26.8143 C   0  0  0  0  0  0  0  0  0  0  0  0
   -1.6211    3.0919   25.7084 O   0  0  0  0  0  0  0  0  0  0  0  0
   -0.6012    1.8480   28.4245 C   0  0  0  0  0  0  0  0  0  0  0  0
    0.0679    0.8275   29.1089 C   0  0  0  0  0  0  0  0  0  0  0  0
    0.0165   -3.0708   29.4649 C   0  0  0  0  0  0  0  0  0  0  0  0
  1  2  2  0
  3  2  1  6
  3  4  1  0
  4  5  1  0
  5  6  1  0
  6  7  2  0
  6  8  2  0
  6  9  1  0
  9 10  1  0
 10 11  1  0
 11 12  1  0
 12 13  1  0
 13 14  1  0
  5 15  1  0
 15 16  1  0
 16 17  1  0
 17 18  2  0
 18 19  1  0
 19 20  1  0
  2 21  1  0
 21 22  1  0
 22 23  1  0
 23 24  1  0
 24 25  1  0
 25 26  1  6
 26 27  2  0
 27 28  1  0
 28 29  2  0
 29 30  1  0
 30 31  1  0
 29 32  1  0
 32 33  2  0
 25 34  1  0
 20  3  1  0
 34 21  1  0
 14  9  1  0
 20 16  2  0
 33 26  1  0
M  END
>  <SLURM_JOB_ID>  (1) 
350559

>  <original SMILES>  (1) 
O=C([C@H]1CN(S(=O)(=O)N2CCNCC2)Cc2nn[nH]c21)N1CCC[C@@H](c2ccc(CO)cc2)C1

>  <tags>  (1) 
Fragmenstein placed

>  <inchikey>  (1) 
OZWBTGWXFDYOIC-MOPGFXCFSA-N

>  <scratch_subdir>  (1) 
/opt/xchem-fragalysis-2/maxwin/BulkDock/SCRATCH/350559/C157-P141

>  <name>  (1) 
OZWBTGWXFDYOIC-MOPGFXCFSA-N

>  <energy_score>  (1) 
-10.084086

>  <fragmenstein_error>  (1) 
None

>  <csv_name>  (1) 
D68EV3C_iter1_fstein_split1000_batch001.csv

>  <fragmenstein_mode>  (1) 
expansion

>  <HIPPO Compound ID>  (1) 
157

>  <HIPPO Pose ID>  (1) 
203

>  <ref_mols>  (1) 
B0525a,B1020a

>  <fragmenstein_runtime>  (1) 
10.939542

>  <fragmenstein_outcome>  (1) 
acceptable

>  <distance_score>  (1) 
0.669517

>  <score_inspiration>  (1) 
0.787266

>  <original ID>  (1) 
OZWBTGWXFDYOIC-MOPGFXCFSA-N

>  <ref_pdb>  (1) 
B0525a

>  <alias>  (1) 
None

$$$$
206
     RDKit          3D

 34 38  0  0  0  0  0  0  0  0999 V2000
    0.5819   -2.9086   32.8046 O   0  0  0  0  0  0  0  0  0  0  0  0
    0.6337   -3.8759   32.1346 C   0  0  0  0  0  0  0  0  0  0  0  0
    0.8369   -5.2656   32.7686 C   0  0  1  0  0  0  0  0  0  0  0  0
    0.6624   -5.0935   34.3043 C   0  0  0  0  0  0  0  0  0  0  0  0
    0.4414   -6.3976   35.0045 N   0  0  0  0  0  0  0  0  0  0  0  0
    0.9194   -6.4637   36.6024 S   0  0  0  0  0  0  0  0  0  0  0  0
    2.3631   -6.4065   36.5715 O   0  0  0  0  0  0  0  0  0  0  0  0
    0.2079   -7.5290   37.2601 O   0  0  0  0  0  0  0  0  0  0  0  0
    0.3609   -4.9977   37.1947 N   0  0  0  0  0  0  0  0  0  0  0  0
    1.2358   -4.3604   38.2298 C   0  0  0  0  0  0  0  0  0  0  0  0
    0.4573   -3.4457   39.1987 C   0  0  0  0  0  0  0  0  0  0  0  0
   -0.5384   -2.5998   38.5339 N   0  0  0  0  0  0  0  0  0  0  0  0
   -1.4654   -3.4059   37.7243 C   0  0  0  0  0  0  0  0  0  0  0  0
   -1.0772   -4.8866   37.5172 C   0  0  0  0  0  0  0  0  0  0  0  0
   -0.7853   -7.1412   34.6119 C   0  0  0  0  0  0  0  0  0  0  0  0
   -0.8468   -7.1493   33.1233 C   0  0  0  0  0  0  0  0  0  0  0  0
   -1.5787   -8.0015   32.3499 N   0  0  0  0  0  0  0  0  0  0  0  0
   -1.3139   -7.7242   31.0748 N   0  0  0  0  0  0  0  0  0  0  0  0
   -0.4247   -6.7135   31.0519 N   0  0  0  0  0  0  0  0  0  0  0  0
   -0.1298   -6.3024   32.3103 C   0  0  0  0  0  0  0  0  0  0  0  0
    0.5518   -4.0317   30.6214 N   0  0  0  0  0  0  0  0  0  0  0  0
    1.9381   -3.9543   29.9814 C   0  0  0  0  0  0  0  0  0  0  0  0
    2.8312   -2.7438   30.2845 C   0  0  0  0  0  0  0  0  0  0  0  0
    2.2653   -1.5211   29.6025 C   0  0  0  0  0  0  0  0  0  0  0  0
    0.7556   -1.5412   29.8089 C   0  0  1  0  0  0  0  0  0  0  0  0
    0.0884   -0.4361   29.0144 C   0  0  0  0  0  0  0  0  0  0  0  0
   -0.8207   -0.6869   27.9934 C   0  0  0  0  0  0  0  0  0  0  0  0
   -1.4009    0.3629   27.2816 C   0  0  0  0  0  0  0  0  0  0  0  0
   -1.1759    1.6925   27.6185 C   0  0  0  0  0  0  0  0  0  0  0  0
   -1.9522    2.7829   26.9370 C   0  0  0  0  0  0  0  0  0  0  0  0
   -1.3110    3.1442   25.7240 O   0  0  0  0  0  0  0  0  0  0  0  0
   -0.2427    1.9584   28.6165 C   0  0  0  0  0  0  0  0  0  0  0  0
    0.3776    0.9083   29.3075 C   0  0  0  0  0  0  0  0  0  0  0  0
    0.2766   -3.0033   29.5333 C   0  0  0  0  0  0  0  0  0  0  0  0
  1  2  2  0
  3  2  1  6
  3  4  1  0
  4  5  1  0
  5  6  1  0
  6  7  2  0
  6  8  2  0
  6  9  1  0
  9 10  1  0
 10 11  1  0
 11 12  1  0
 12 13  1  0
 13 14  1  0
  5 15  1  0
 15 16  1  0
 16 17  1  0
 17 18  2  0
 18 19  1  0
 19 20  1  0
  2 21  1  0
 21 22  1  0
 22 23  1  0
 23 24  1  0
 24 25  1  0
 25 26  1  6
 26 27  2  0
 27 28  1  0
 28 29  2  0
 29 30  1  0
 30 31  1  0
 29 32  1  0
 32 33  2  0
 25 34  1  0
 20  3  1  0
 34 21  1  0
 14  9  1  0
 20 16  2  0
 33 26  1  0
M  END
>  <SLURM_JOB_ID>  (2) 
350559

>  <original SMILES>  (2) 
O=C([C@H]1CN(S(=O)(=O)N2CCNCC2)Cc2nn[nH]c21)N1CCC[C@@H](c2ccc(CO)cc2)C1

>  <tags>  (2) 
Fragmenstein placed

>  <inchikey>  (2) 
OZWBTGWXFDYOIC-MOPGFXCFSA-N

>  <scratch_subdir>  (2) 
/opt/xchem-fragalysis-2/maxwin/BulkDock/SCRATCH/350559/C157-P168

>  <name>  (2) 
OZWBTGWXFDYOIC-MOPGFXCFSA-N

>  <energy_score>  (2) 
-9.773243

>  <fragmenstein_error>  (2) 
None

>  <csv_name>  (2) 
D68EV3C_iter1_fstein_split1000_batch001.csv

>  <fragmenstein_mode>  (2) 
expansion

>  <HIPPO Compound ID>  (2) 
157

>  <HIPPO Pose ID>  (2) 
206

>  <ref_mols>  (2) 
B0525a,B1020a

>  <fragmenstein_runtime>  (2) 
9.963999

>  <fragmenstein_outcome>  (2) 
acceptable

>  <distance_score>  (2) 
0.755558

>  <score_inspiration>  (2) 
0.743336

>  <original ID>  (2) 
OZWBTGWXFDYOIC-MOPGFXCFSA-N

>  <ref_pdb>  (2) 
B1020a

>  <alias>  (2) 
None

$$$$
210
     RDKit          3D

 31 34  0  0  0  0  0  0  0  0999 V2000
   -1.8577   -0.2546   31.6014 C   0  0  0  0  0  0  0  0  0  0  0  0
   -0.7428   -1.2322   31.8476 C   0  0  0  0  0  0  0  0  0  0  0  0
   -1.1227   -2.8628   31.2901 S   0  0  2  0  0  0  0  0  0  0  0  0
   -2.5348   -3.1090   31.4763 O   0  0  0  0  0  0  0  0  0  0  0  0
   -0.0612   -3.7978   31.8759 N   0  0  0  0  0  0  0  0  0  0  0  0
   -0.5715   -4.6585   32.9601 C   0  0  0  0  0  0  0  0  0  0  0  0
    0.6212   -5.5513   33.4694 N   0  0  0  0  0  0  0  0  0  0  0  0
    0.8512   -5.3630   34.9540 C   0  0  0  0  0  0  0  0  0  0  0  0
    0.3956   -5.9372   35.8733 O   0  0  0  0  0  0  0  0  0  0  0  0
    1.7797   -4.1256   35.0655 C   0  0  1  0  0  0  0  0  0  0  0  0
    1.9540   -3.6456   36.4034 O   0  0  0  0  0  0  0  0  0  0  0  0
    3.2990   -3.1807   36.5527 C   0  0  0  0  0  0  0  0  0  0  0  0
    3.9287   -3.2026   35.1749 C   0  0  0  0  0  0  0  0  0  0  0  0
    3.1730   -4.3145   34.4714 C   0  0  1  0  0  0  0  0  0  0  0  0
    3.7845   -5.6815   34.7728 C   0  0  0  0  0  0  0  0  0  0  0  0
   -0.1387   -6.5413   32.7595 C   0  0  0  0  0  0  0  0  0  0  0  0
   -0.9515   -7.5603   33.2298 C   0  0  0  0  0  0  0  0  0  0  0  0
   -1.5113   -8.3593   32.2461 N   0  0  0  0  0  0  0  0  0  0  0  0
   -1.0256   -8.0778   31.0495 N   0  0  0  0  0  0  0  0  0  0  0  0
    0.1400   -6.8706   31.0842 S   0  0  0  0  0  0  0  0  0  0  0  0
   -0.9094   -3.0378   29.6550 N   0  0  0  0  0  0  0  0  0  0  0  0
    0.1169   -2.3835   28.8768 C   0  0  0  0  0  0  0  0  0  0  0  0
   -0.2195   -0.9732   28.4440 C   0  0  0  0  0  0  0  0  0  0  0  0
    0.7075    0.0738   28.6644 C   0  0  0  0  0  0  0  0  0  0  0  0
    0.4465    1.3785   28.2294 C   0  0  0  0  0  0  0  0  0  0  0  0
   -0.7383    1.6111   27.5680 C   0  0  0  0  0  0  0  0  0  0  0  0
   -1.6411    0.6052   27.3348 C   0  0  0  0  0  0  0  0  0  0  0  0
   -1.4125   -0.6901   27.7540 C   0  0  0  0  0  0  0  0  0  0  0  0
   -2.7272    1.0404   26.6439 O   0  0  0  0  0  0  0  0  0  0  0  0
   -2.4397    2.4460   26.5232 C   0  0  0  0  0  0  0  0  0  0  0  0
   -1.1457    2.8044   27.0597 O   0  0  0  0  0  0  0  0  0  0  0  0
  1  2  1  0
  3  2  1  1
  3  4  2  0
  3  5  2  0
  5  6  1  0
  6  7  1  0
  7  8  1  0
  8  9  2  0
 10  8  1  1
 10 11  1  0
 11 12  1  0
 12 13  1  0
 13 14  1  0
 14 15  1  1
  7 16  1  0
 16 17  2  0
 17 18  1  0
 18 19  2  0
 19 20  1  0
  3 21  1  0
 21 22  1  0
 22 23  1  0
 23 24  2  0
 24 25  1  0
 25 26  2  0
 26 27  1  0
 27 28  2  0
 27 29  1  0
 29 30  1  0
 30 31  1  0
 14 10  1  0
 20 16  1  0
 28 23  1  0
 31 26  1  0
M  END
>  <SLURM_JOB_ID>  (3) 
350558

>  <original SMILES>  (3) 
CC[S@](=O)(=NCN(C(=O)[C@H]1OCC[C@H]1C)c1cnns1)NCc1ccc2c(c1)OCO2

>  <tags>  (3) 
Fragmenstein placed

>  <inchikey>  (3) 
UDKSHBBSADJHDT-PAOBBKMPSA-N

>  <scratch_subdir>  (3) 
/opt/xchem-fragalysis-2/maxwin/BulkDock/SCRATCH/350558/C472-P13

>  <name>  (3) 
UDKSHBBSADJHDT-PAOBBKMPSA-N

>  <energy_score>  (3) 
-43.589253

>  <fragmenstein_error>  (3) 
None

>  <csv_name>  (3) 
D68EV3C_iter1_fstein_split1000_batch000.csv

>  <fragmenstein_mode>  (3) 
expansion

>  <HIPPO Compound ID>  (3) 
472

>  <HIPPO Pose ID>  (3) 
210

>  <ref_mols>  (3) 
7gp9-a,7gol-a

>  <fragmenstein_runtime>  (3) 
3.963729

>  <fragmenstein_outcome>  (3) 
acceptable

>  <distance_score>  (3) 
0.493116

>  <score_inspiration>  (3) 
0.846121

>  <original ID>  (3) 
UDKSHBBSADJHDT-PAOBBKMPSA-N

>  <ref_pdb>  (3) 
7gp9-a

>  <alias>  (3) 
None

$$$$
213
     RDKit          3D

 31 34  0  0  0  0  0  0  0  0999 V2000
   -1.8097   -0.2259   31.5706 C   0  0  0  0  0  0  0  0  0  0  0  0
   -0.6986   -1.2032   31.8363 C   0  0  0  0  0  0  0  0  0  0  0  0
   -1.0728   -2.8381   31.2871 S   0  0  2  0  0  0  0  0  0  0  0  0
   -2.4866   -3.0830   31.4567 O   0  0  0  0  0  0  0  0  0  0  0  0
   -0.0211   -3.7715   31.8929 N   0  0  0  0  0  0  0  0  0  0  0  0
   -0.5175   -4.5677   33.0327 C   0  0  0  0  0  0  0  0  0  0  0  0
    0.6546   -5.4848   33.5411 N   0  0  0  0  0  0  0  0  0  0  0  0
    0.9040   -5.2846   35.0203 C   0  0  0  0  0  0  0  0  0  0  0  0
    0.4424   -5.8351   35.9508 O   0  0  0  0  0  0  0  0  0  0  0  0
    1.8650   -4.0724   35.1108 C   0  0  1  0  0  0  0  0  0  0  0  0
    2.0359   -3.5743   36.4424 O   0  0  0  0  0  0  0  0  0  0  0  0
    3.3996   -3.1794   36.6135 C   0  0  0  0  0  0  0  0  0  0  0  0
    4.0455   -3.2297   35.2441 C   0  0  0  0  0  0  0  0  0  0  0  0
    3.2565   -4.3141   34.5343 C   0  0  1  0  0  0  0  0  0  0  0  0
    3.8111   -5.7029   34.8445 C   0  0  0  0  0  0  0  0  0  0  0  0
   -0.1410   -6.4663   32.8485 C   0  0  0  0  0  0  0  0  0  0  0  0
   -0.9402   -7.4821   33.3533 C   0  0  0  0  0  0  0  0  0  0  0  0
   -1.5305   -8.2922   32.3968 N   0  0  0  0  0  0  0  0  0  0  0  0
   -1.0967   -8.0118   31.1801 N   0  0  0  0  0  0  0  0  0  0  0  0
    0.0749   -6.8097   31.1647 S   0  0  0  0  0  0  0  0  0  0  0  0
   -0.8421   -3.0262   29.6544 N   0  0  0  0  0  0  0  0  0  0  0  0
    0.1792   -2.3655   28.8740 C   0  0  0  0  0  0  0  0  0  0  0  0
   -0.1798   -0.9682   28.4195 C   0  0  0  0  0  0  0  0  0  0  0  0
    0.7063    0.1066   28.6702 C   0  0  0  0  0  0  0  0  0  0  0  0
    0.4185    1.4032   28.2283 C   0  0  0  0  0  0  0  0  0  0  0  0
   -0.7506    1.5996   27.5285 C   0  0  0  0  0  0  0  0  0  0  0  0
   -1.6105    0.5651   27.2603 C   0  0  0  0  0  0  0  0  0  0  0  0
   -1.3556   -0.7231   27.6863 C   0  0  0  0  0  0  0  0  0  0  0  0
   -2.6848    0.9667   26.5313 O   0  0  0  0  0  0  0  0  0  0  0  0
   -2.4442    2.3838   26.4342 C   0  0  0  0  0  0  0  0  0  0  0  0
   -1.1813    2.7818   27.0137 O   0  0  0  0  0  0  0  0  0  0  0  0
  1  2  1  0
  3  2  1  1
  3  4  2  0
  3  5  2  0
  5  6  1  0
  6  7  1  0
  7  8  1  0
  8  9  2  0
 10  8  1  1
 10 11  1  0
 11 12  1  0
 12 13  1  0
 13 14  1  0
 14 15  1  1
  7 16  1  0
 16 17  2  0
 17 18  1  0
 18 19  2  0
 19 20  1  0
  3 21  1  0
 21 22  1  0
 22 23  1  0
 23 24  2  0
 24 25  1  0
 25 26  2  0
 26 27  1  0
 27 28  2  0
 27 29  1  0
 29 30  1  0
 30 31  1  0
 14 10  1  0
 20 16  1  0
 28 23  1  0
 31 26  1  0
M  END
>  <SLURM_JOB_ID>  (4) 
350558

>  <original SMILES>  (4) 
CC[S@](=O)(=NCN(C(=O)[C@H]1OCC[C@H]1C)c1cnns1)NCc1ccc2c(c1)OCO2

>  <tags>  (4) 
Fragmenstein placed

>  <inchikey>  (4) 
UDKSHBBSADJHDT-PAOBBKMPSA-N

>  <scratch_subdir>  (4) 
/opt/xchem-fragalysis-2/maxwin/BulkDock/SCRATCH/350558/C472-P41

>  <name>  (4) 
UDKSHBBSADJHDT-PAOBBKMPSA-N

>  <energy_score>  (4) 
-43.372151

>  <fragmenstein_error>  (4) 
None

>  <csv_name>  (4) 
D68EV3C_iter1_fstein_split1000_batch000.csv

>  <fragmenstein_mode>  (4) 
expansion

>  <HIPPO Compound ID>  (4) 
472

>  <HIPPO Pose ID>  (4) 
213

>  <ref_mols>  (4) 
7gp9-a,7gol-a

>  <fragmenstein_runtime>  (4) 
3.257951

>  <fragmenstein_outcome>  (4) 
acceptable

>  <distance_score>  (4) 
0.502946

>  <score_inspiration>  (4) 
0.846594

>  <original ID>  (4) 
UDKSHBBSADJHDT-PAOBBKMPSA-N

>  <ref_pdb>  (4) 
7gol-a

>  <alias>  (4) 
None

$$$$
225
     RDKit          3D

 28 30  0  0  0  0  0  0  0  0999 V2000
    5.1422    5.6342   28.7262 C   0  0  0  0  0  0  0  0  0  0  0  0
    4.5990    6.3518   27.5010 C   0  0  0  0  0  0  0  0  0  0  0  0
    3.7525    5.3789   26.7032 C   0  0  0  0  0  0  0  0  0  0  0  0
    4.1567    4.8092   25.7679 O   0  0  0  0  0  0  0  0  0  0  0  0
    2.3935    5.2641   27.4390 N   0  0  0  0  0  0  0  0  0  0  0  0
    1.2891    4.3565   27.2325 C   0  0  1  0  0  0  0  0  0  0  0  0
   -0.0509    4.8772   27.7412 C   0  0  0  0  0  0  0  0  0  0  0  0
   -1.1010    3.7481   27.8108 C   0  0  0  0  0  0  0  0  0  0  0  0
   -0.9927    2.7009   26.6677 C   0  0  1  0  0  0  0  0  0  0  0  0
   -0.2496    3.3191   25.4830 C   0  0  0  0  0  0  0  0  0  0  0  0
    1.1669    3.7711   25.8052 C   0  0  1  0  0  0  0  0  0  0  0  0
    1.5102    4.7004   24.7814 O   0  0  0  0  0  0  0  0  0  0  0  0
   -0.4709    1.3966   27.2255 C   0  0  0  0  0  0  0  0  0  0  0  0
    0.7909    0.9842   27.6250 C   0  0  0  0  0  0  0  0  0  0  0  0
    0.9590   -0.2902   28.1775 C   0  0  0  0  0  0  0  0  0  0  0  0
   -0.1268   -1.1686   28.3260 C   0  0  0  0  0  0  0  0  0  0  0  0
    0.1075   -2.5547   28.8626 C   0  0  0  0  0  0  0  0  0  0  0  0
   -1.0005   -3.0413   29.6647 N   0  0  0  0  0  0  0  0  0  0  0  0
   -0.9080   -3.1047   31.3070 S   0  0  0  0  0  0  0  0  0  0  0  0
   -2.1630   -3.6793   31.7428 O   0  0  0  0  0  0  0  0  0  0  0  0
    0.3509   -3.7271   31.6516 O   0  0  0  0  0  0  0  0  0  0  0  0
   -0.8447   -1.3963   31.8286 C   0  0  0  0  0  0  0  0  0  0  0  0
   -2.1436   -0.6579   31.6125 C   0  0  0  0  0  0  0  0  0  0  0  0
   -1.3916   -0.7541   27.8946 C   0  0  0  0  0  0  0  0  0  0  0  0
   -1.5308    0.5140   27.3703 C   0  0  0  0  0  0  0  0  0  0  0  0
   -2.7284    1.0062   26.9402 O   0  0  0  0  0  0  0  0  0  0  0  0
   -2.3413    2.1291   26.1296 C   0  0  1  0  0  0  0  0  0  0  0  0
   -3.5013    3.0789   26.0446 C   0  0  0  0  0  0  0  0  0  0  0  0
  1  2  1  0
  2  3  1  0
  3  4  2  0
  3  5  1  0
  6  5  1  6
  6  7  1  0
  7  8  1  0
  9  8  1  1
  9 10  1  0
 10 11  1  0
 11 12  1  6
  9 13  1  0
 13 14  2  0
 14 15  1  0
 15 16  2  0
 16 17  1  0
 17 18  1  0
 18 19  1  0
 19 20  2  0
 19 21  2  0
 19 22  1  0
 22 23  1  0
 16 24  1  0
 24 25  2  0
 25 26  1  0
 26 27  1  0
 27 28  1  1
 11  6  1  0
 25 13  1  0
 27  9  1  0
M  END
>  <SLURM_JOB_ID>  (5) 
350558

>  <original SMILES>  (5) 
CCC(=O)N[C@H]1CC[C@@]2(C[C@H]1O)c1ccc(CNS(=O)(=O)CC)cc1O[C@H]2C

>  <tags>  (5) 
Fragmenstein placed

>  <inchikey>  (5) 
ZZAPKEYDPOHXCZ-NYYTWLDWSA-N

>  <scratch_subdir>  (5) 
/opt/xchem-fragalysis-2/maxwin/BulkDock/SCRATCH/350558/C475-P13

>  <name>  (5) 
ZZAPKEYDPOHXCZ-NYYTWLDWSA-N

>  <energy_score>  (5) 
-33.50532

>  <fragmenstein_error>  (5) 
None

>  <csv_name>  (5) 
D68EV3C_iter1_fstein_split1000_batch000.csv

>  <fragmenstein_mode>  (5) 
expansion

>  <HIPPO Compound ID>  (5) 
475

>  <HIPPO Pose ID>  (5) 
225

>  <ref_mols>  (5) 
7gp9-a,7gox-a

>  <fragmenstein_runtime>  (5) 
3.586654

>  <fragmenstein_outcome>  (5) 
acceptable

>  <distance_score>  (5) 
0.94211

>  <score_inspiration>  (5) 
0.670227

>  <original ID>  (5) 
ZZAPKEYDPOHXCZ-NYYTWLDWSA-N

>  <ref_pdb>  (5) 
7gp9-a

>  <alias>  (5) 
None

$$$$
232
     RDKit          3D

 28 30  0  0  0  0  0  0  0  0999 V2000
    5.0654    5.8103   28.0598 C   0  0  0  0  0  0  0  0  0  0  0  0
    3.9941    6.8937   28.1429 C   0  0  0  0  0  0  0  0  0  0  0  0
    2.7328    6.5196   27.3692 C   0  0  0  0  0  0  0  0  0  0  0  0
    2.3378    7.1185   26.4513 O   0  0  0  0  0  0  0  0  0  0  0  0
    2.2033    5.2240   28.0217 N   0  0  0  0  0  0  0  0  0  0  0  0
    1.1351    4.3457   27.6231 C   0  0  1  0  0  0  0  0  0  0  0  0
   -0.2602    4.8515   27.9467 C   0  0  0  0  0  0  0  0  0  0  0  0
   -1.2689    3.6844   27.8956 C   0  0  0  0  0  0  0  0  0  0  0  0
   -1.0091    2.6692   26.7448 C   0  0  1  0  0  0  0  0  0  0  0  0
   -0.1437    3.3187   25.6613 C   0  0  0  0  0  0  0  0  0  0  0  0
    1.2118    3.8058   26.1677 C   0  0  1  0  0  0  0  0  0  0  0  0
    1.6905    4.7198   25.1888 O   0  0  0  0  0  0  0  0  0  0  0  0
   -0.4864    1.3608   27.2951 C   0  0  0  0  0  0  0  0  0  0  0  0
    0.7545    0.9727   27.7804 C   0  0  0  0  0  0  0  0  0  0  0  0
    0.9280   -0.3134   28.2983 C   0  0  0  0  0  0  0  0  0  0  0  0
   -0.1329   -1.2286   28.3266 C   0  0  0  0  0  0  0  0  0  0  0  0
    0.0912   -2.6154   28.8593 C   0  0  0  0  0  0  0  0  0  0  0  0
   -1.0054   -3.0656   29.6961 N   0  0  0  0  0  0  0  0  0  0  0  0
   -0.8880   -3.0695   31.3380 S   0  0  0  0  0  0  0  0  0  0  0  0
   -2.1419   -3.6180   31.8081 O   0  0  0  0  0  0  0  0  0  0  0  0
    0.3697   -3.6930   31.6856 O   0  0  0  0  0  0  0  0  0  0  0  0
   -0.8020   -1.3465   31.8044 C   0  0  0  0  0  0  0  0  0  0  0  0
   -2.0839   -0.5917   31.5470 C   0  0  0  0  0  0  0  0  0  0  0  0
   -1.3701   -0.8446   27.7971 C   0  0  0  0  0  0  0  0  0  0  0  0
   -1.5131    0.4336   27.2995 C   0  0  0  0  0  0  0  0  0  0  0  0
   -2.6777    0.8844   26.7565 O   0  0  0  0  0  0  0  0  0  0  0  0
   -2.2921    2.0898   26.0710 C   0  0  1  0  0  0  0  0  0  0  0  0
   -3.5067    2.9740   26.0045 C   0  0  0  0  0  0  0  0  0  0  0  0
  1  2  1  0
  2  3  1  0
  3  4  2  0
  3  5  1  0
  6  5  1  6
  6  7  1  0
  7  8  1  0
  9  8  1  1
  9 10  1  0
 10 11  1  0
 11 12  1  6
  9 13  1  0
 13 14  2  0
 14 15  1  0
 15 16  2  0
 16 17  1  0
 17 18  1  0
 18 19  1  0
 19 20  2  0
 19 21  2  0
 19 22  1  0
 22 23  1  0
 16 24  1  0
 24 25  2  0
 25 26  1  0
 26 27  1  0
 27 28  1  1
 11  6  1  0
 25 13  1  0
 27  9  1  0
M  END
>  <SLURM_JOB_ID>  (6) 
350558

>  <original SMILES>  (6) 
CCC(=O)N[C@H]1CC[C@@]2(C[C@H]1O)c1ccc(CNS(=O)(=O)CC)cc1O[C@H]2C

>  <tags>  (6) 
Fragmenstein placed

>  <inchikey>  (6) 
ZZAPKEYDPOHXCZ-NYYTWLDWSA-N

>  <scratch_subdir>  (6) 
/opt/xchem-fragalysis-2/maxwin/BulkDock/SCRATCH/350558/C475-P57

>  <name>  (6) 
ZZAPKEYDPOHXCZ-NYYTWLDWSA-N

>  <energy_score>  (6) 
-32.045841

>  <fragmenstein_error>  (6) 
None

>  <csv_name>  (6) 
D68EV3C_iter1_fstein_split1000_batch000.csv

>  <fragmenstein_mode>  (6) 
expansion

>  <HIPPO Compound ID>  (6) 
475

>  <HIPPO Pose ID>  (6) 
232

>  <ref_mols>  (6) 
7gp9-a,7gox-a

>  <fragmenstein_runtime>  (6) 
3.799099

>  <fragmenstein_outcome>  (6) 
acceptable

>  <distance_score>  (6) 
0.887106

>  <score_inspiration>  (6) 
0.677863

>  <original ID>  (6) 
ZZAPKEYDPOHXCZ-NYYTWLDWSA-N

>  <ref_pdb>  (6) 
7gox-a

>  <alias>  (6) 
None

$$$$
247
     RDKit          3D

 17 19  0  0  0  0  0  0  0  0999 V2000
   -0.4749   -4.2950   34.0833 N   0  0  0  0  0  0  0  0  0  0  0  0
    0.6286   -5.2287   34.0449 C   0  0  2  0  0  0  0  0  0  0  0  0
    0.8707   -5.6454   32.5645 C   0  0  0  0  0  0  0  0  0  0  0  0
   -0.1229   -6.6707   32.2046 C   0  0  0  0  0  0  0  0  0  0  0  0
   -0.5220   -7.0888   30.9845 N   0  0  0  0  0  0  0  0  0  0  0  0
   -1.4476   -8.0544   31.1069 N   0  0  0  0  0  0  0  0  0  0  0  0
   -1.6859   -8.2369   32.4052 N   0  0  0  0  0  0  0  0  0  0  0  0
   -0.8718   -7.3946   33.1004 C   0  0  0  0  0  0  0  0  0  0  0  0
   -0.8021   -7.2335   34.5868 C   0  0  0  0  0  0  0  0  0  0  0  0
    0.3372   -6.3580   34.9179 N   0  0  0  0  0  0  0  0  0  0  0  0
    0.7053   -6.2614   36.3180 C   0  0  0  0  0  0  0  0  0  0  0  0
    0.3264   -4.9854   36.9214 N   0  0  0  0  0  0  0  0  0  0  0  0
    1.2513   -4.6168   38.0179 C   0  0  0  0  0  0  0  0  0  0  0  0
    0.7278   -3.4632   38.9152 C   0  0  0  0  0  0  0  0  0  0  0  0
   -0.3368   -2.6777   38.2714 N   0  0  0  0  0  0  0  0  0  0  0  0
   -1.4620   -3.5803   37.9560 C   0  0  0  0  0  0  0  0  0  0  0  0
   -1.0460   -4.9873   37.4481 C   0  0  0  0  0  0  0  0  0  0  0  0
  2  1  1  6
  2  3  1  0
  3  4  1  0
  4  5  1  0
  5  6  1  0
  6  7  2  0
  7  8  1  0
  8  9  1  0
  9 10  1  0
 10 11  1  0
 11 12  1  0
 12 13  1  0
 13 14  1  0
 14 15  1  0
 15 16  1  0
 16 17  1  0
 10  2  1  0
 17 12  1  0
  8  4  2  0
M  END
>  <SLURM_JOB_ID>  (7) 
350559

>  <original SMILES>  (7) 
N[C@@H]1Cc2[nH]nnc2CN1CN1CCNCC1

>  <tags>  (7) 
Fragmenstein placed

>  <inchikey>  (7) 
JTUKHQXJKCUGDX-JTQLQIEISA-N

>  <scratch_subdir>  (7) 
/opt/xchem-fragalysis-2/maxwin/BulkDock/SCRATCH/350559/C164-P158

>  <name>  (7) 
JTUKHQXJKCUGDX-JTQLQIEISA-N

>  <energy_score>  (7) 
-73.816657

>  <fragmenstein_error>  (7) 
None

>  <csv_name>  (7) 
D68EV3C_iter1_fstein_split1000_batch001.csv

>  <fragmenstein_mode>  (7) 
expansion

>  <HIPPO Compound ID>  (7) 
164

>  <HIPPO Pose ID>  (7) 
247

>  <ref_mols>  (7) 
B0875a,B1020a

>  <fragmenstein_runtime>  (7) 
1.928498

>  <fragmenstein_outcome>  (7) 
acceptable

>  <distance_score>  (7) 
0.926951

>  <score_inspiration>  (7) 
0.723826

>  <original ID>  (7) 
JTUKHQXJKCUGDX-JTQLQIEISA-N

>  <ref_pdb>  (7) 
B0875a

>  <alias>  (7) 
None

$$$$
249
     RDKit          3D

 19 20  0  0  0  0  0  0  0  0999 V2000
   -2.1648   -0.5766   31.7169 C   0  0  0  0  0  0  0  0  0  0  0  0
   -0.8888   -1.3595   31.9166 C   0  0  0  0  0  0  0  0  0  0  0  0
   -0.9471   -2.9856   31.1834 S   0  0  0  0  0  0  0  0  0  0  0  0
   -2.1639   -3.6382   31.6187 O   0  0  0  0  0  0  0  0  0  0  0  0
    0.3404   -3.6148   31.3757 O   0  0  0  0  0  0  0  0  0  0  0  0
   -1.1385   -2.6745   29.5730 N   0  0  0  0  0  0  0  0  0  0  0  0
   -0.0393   -2.1574   28.7742 C   0  0  0  0  0  0  0  0  0  0  0  0
   -0.2841   -0.7382   28.3210 C   0  0  0  0  0  0  0  0  0  0  0  0
    0.6871    0.2557   28.5791 C   0  0  0  0  0  0  0  0  0  0  0  0
    0.5063    1.5688   28.1396 C   0  0  0  0  0  0  0  0  0  0  0  0
   -0.6434    1.8604   27.4401 C   0  0  0  0  0  0  0  0  0  0  0  0
   -1.5971    0.9099   27.1780 C   0  0  0  0  0  0  0  0  0  0  0  0
   -1.4493   -0.3943   27.6078 C   0  0  0  0  0  0  0  0  0  0  0  0
   -2.6247    1.4080   26.4357 O   0  0  0  0  0  0  0  0  0  0  0  0
   -2.2181    2.8000   26.2723 C   0  0  2  0  0  0  0  0  0  0  0  0
   -2.1598    3.1305   24.7535 C   0  0  0  0  0  0  0  0  0  0  0  0
   -0.8556    3.7462   24.2593 C   0  0  0  0  0  0  0  0  0  0  0  0
   -3.3312    4.0199   24.3420 C   0  0  0  0  0  0  0  0  0  0  0  0
   -0.9486    3.0721   26.9087 O   0  0  0  0  0  0  0  0  0  0  0  0
  1  2  1  0
  2  3  1  0
  3  4  2  0
  3  5  2  0
  3  6  1  0
  6  7  1  0
  7  8  1  0
  8  9  2  0
  9 10  1  0
 10 11  2  0
 11 12  1  0
 12 13  2  0
 12 14  1  0
 14 15  1  0
 15 16  1  6
 16 17  1  0
 16 18  1  0
 15 19  1  0
 13  8  1  0
 19 11  1  0
M  END
>  <SLURM_JOB_ID>  (8) 
350558

>  <original SMILES>  (8) 
CCS(=O)(=O)NCc1ccc2c(c1)O[C@H](C(C)C)O2

>  <tags>  (8) 
Fragmenstein placed

>  <inchikey>  (8) 
GNGRUWAZVCUSFH-CYBMUJFWSA-N

>  <scratch_subdir>  (8) 
/opt/xchem-fragalysis-2/maxwin/BulkDock/SCRATCH/350558/C477-P13

>  <name>  (8) 
GNGRUWAZVCUSFH-CYBMUJFWSA-N

>  <energy_score>  (8) 
-38.1982

>  <fragmenstein_error>  (8) 
None

>  <csv_name>  (8) 
D68EV3C_iter1_fstein_split1000_batch000.csv

>  <fragmenstein_mode>  (8) 
expansion

>  <HIPPO Compound ID>  (8) 
477

>  <HIPPO Pose ID>  (8) 
249

>  <ref_mols>  (8) 
7gp9-a,7gpm-a

>  <fragmenstein_runtime>  (8) 
4.088595

>  <fragmenstein_outcome>  (8) 
acceptable

>  <distance_score>  (8) 
0.815763

>  <score_inspiration>  (8) 
0.849732

>  <original ID>  (8) 
GNGRUWAZVCUSFH-CYBMUJFWSA-N

>  <ref_pdb>  (8) 
7gp9-a

>  <alias>  (8) 
None

$$$$
252
     RDKit          3D

 17 19  0  0  0  0  0  0  0  0999 V2000
   -0.3309   -4.3518   33.9436 N   0  0  0  0  0  0  0  0  0  0  0  0
    0.7483   -5.3166   33.9931 C   0  0  2  0  0  0  0  0  0  0  0  0
    1.0455   -5.8309   32.5482 C   0  0  0  0  0  0  0  0  0  0  0  0
    0.0031   -6.8101   32.1892 C   0  0  0  0  0  0  0  0  0  0  0  0
   -0.3789   -7.2631   30.9742 N   0  0  0  0  0  0  0  0  0  0  0  0
   -1.4281   -8.0949   31.1003 N   0  0  0  0  0  0  0  0  0  0  0  0
   -1.7104   -8.2076   32.3978 N   0  0  0  0  0  0  0  0  0  0  0  0
   -0.8262   -7.4360   33.0871 C   0  0  0  0  0  0  0  0  0  0  0  0
   -0.7857   -7.2242   34.5676 C   0  0  0  0  0  0  0  0  0  0  0  0
    0.3779   -6.3904   34.9062 N   0  0  0  0  0  0  0  0  0  0  0  0
    0.6984   -6.2357   36.3126 C   0  0  0  0  0  0  0  0  0  0  0  0
    0.2734   -4.9504   36.8615 N   0  0  0  0  0  0  0  0  0  0  0  0
    1.1692   -4.5311   37.9678 C   0  0  0  0  0  0  0  0  0  0  0  0
    0.6072   -3.3671   38.8264 C   0  0  0  0  0  0  0  0  0  0  0  0
   -0.4627   -2.6227   38.1441 N   0  0  0  0  0  0  0  0  0  0  0  0
   -1.5632   -3.5558   37.8358 C   0  0  0  0  0  0  0  0  0  0  0  0
   -1.1100   -4.9621   37.3611 C   0  0  0  0  0  0  0  0  0  0  0  0
  2  1  1  6
  2  3  1  0
  3  4  1  0
  4  5  1  0
  5  6  1  0
  6  7  2  0
  7  8  1  0
  8  9  1  0
  9 10  1  0
 10 11  1  0
 11 12  1  0
 12 13  1  0
 13 14  1  0
 14 15  1  0
 15 16  1  0
 16 17  1  0
 10  2  1  0
 17 12  1  0
  8  4  2  0
M  END
>  <SLURM_JOB_ID>  (9) 
350559

>  <original SMILES>  (9) 
N[C@@H]1Cc2[nH]nnc2CN1CN1CCNCC1

>  <tags>  (9) 
Fragmenstein placed

>  <inchikey>  (9) 
JTUKHQXJKCUGDX-JTQLQIEISA-N

>  <scratch_subdir>  (9) 
/opt/xchem-fragalysis-2/maxwin/BulkDock/SCRATCH/350559/C164-P168

>  <name>  (9) 
JTUKHQXJKCUGDX-JTQLQIEISA-N

>  <energy_score>  (9) 
-74.329479

>  <fragmenstein_error>  (9) 
None

>  <csv_name>  (9) 
D68EV3C_iter1_fstein_split1000_batch001.csv

>  <fragmenstein_mode>  (9) 
expansion

>  <HIPPO Compound ID>  (9) 
164

>  <HIPPO Pose ID>  (9) 
252

>  <ref_mols>  (9) 
B0875a,B1020a

>  <fragmenstein_runtime>  (9) 
1.586936

>  <fragmenstein_outcome>  (9) 
acceptable

>  <distance_score>  (9) 
0.936344

>  <score_inspiration>  (9) 
0.726379

>  <original ID>  (9) 
JTUKHQXJKCUGDX-JTQLQIEISA-N

>  <ref_pdb>  (9) 
B1020a

>  <alias>  (9) 
None

$$$$
254
     RDKit          3D

 19 20  0  0  0  0  0  0  0  0999 V2000
   -2.1226   -0.4768   31.6518 C   0  0  0  0  0  0  0  0  0  0  0  0
   -0.8899   -1.3244   31.8705 C   0  0  0  0  0  0  0  0  0  0  0  0
   -0.9891   -2.9361   31.0996 S   0  0  0  0  0  0  0  0  0  0  0  0
   -2.2457   -3.5542   31.4712 O   0  0  0  0  0  0  0  0  0  0  0  0
    0.2642   -3.6258   31.3156 O   0  0  0  0  0  0  0  0  0  0  0  0
   -1.1131   -2.5948   29.4866 N   0  0  0  0  0  0  0  0  0  0  0  0
    0.0051   -2.0299   28.7411 C   0  0  0  0  0  0  0  0  0  0  0  0
   -0.2641   -0.6001   28.3250 C   0  0  0  0  0  0  0  0  0  0  0  0
    0.6755    0.4122   28.6220 C   0  0  0  0  0  0  0  0  0  0  0  0
    0.4637    1.7363   28.2195 C   0  0  0  0  0  0  0  0  0  0  0  0
   -0.6738    2.0201   27.4968 C   0  0  0  0  0  0  0  0  0  0  0  0
   -1.5805    1.0440   27.1751 C   0  0  0  0  0  0  0  0  0  0  0  0
   -1.4223   -0.2617   27.6008 C   0  0  0  0  0  0  0  0  0  0  0  0
   -2.5660    1.5132   26.3615 O   0  0  0  0  0  0  0  0  0  0  0  0
   -2.2483    2.9369   26.3052 C   0  0  2  0  0  0  0  0  0  0  0  0
   -2.1734    3.4028   24.8223 C   0  0  0  0  0  0  0  0  0  0  0  0
   -0.7743    3.3576   24.2143 C   0  0  0  0  0  0  0  0  0  0  0  0
   -2.7502    4.7968   24.6242 C   0  0  0  0  0  0  0  0  0  0  0  0
   -1.0124    3.2384   26.9942 O   0  0  0  0  0  0  0  0  0  0  0  0
  1  2  1  0
  2  3  1  0
  3  4  2  0
  3  5  2  0
  3  6  1  0
  6  7  1  0
  7  8  1  0
  8  9  2  0
  9 10  1  0
 10 11  2  0
 11 12  1  0
 12 13  2  0
 12 14  1  0
 14 15  1  0
 15 16  1  6
 16 17  1  0
 16 18  1  0
 15 19  1  0
 13  8  1  0
 19 11  1  0
M  END
>  <SLURM_JOB_ID>  (10) 
350558

>  <original SMILES>  (10) 
CCS(=O)(=O)NCc1ccc2c(c1)O[C@H](C(C)C)O2

>  <tags>  (10) 
Fragmenstein placed

>  <inchikey>  (10) 
GNGRUWAZVCUSFH-CYBMUJFWSA-N

>  <scratch_subdir>  (10) 
/opt/xchem-fragalysis-2/maxwin/BulkDock/SCRATCH/350558/C477-P70

>  <name>  (10) 
GNGRUWAZVCUSFH-CYBMUJFWSA-N

>  <energy_score>  (10) 
-39.531383

>  <fragmenstein_error>  (10) 
None

>  <csv_name>  (10) 
D68EV3C_iter1_fstein_split1000_batch000.csv

>  <fragmenstein_mode>  (10) 
expansion

>  <HIPPO Compound ID>  (10) 
477

>  <HIPPO Pose ID>  (10) 
254

>  <ref_mols>  (10) 
7gp9-a,7gpm-a

>  <fragmenstein_runtime>  (10) 
3.546741

>  <fragmenstein_outcome>  (10) 
acceptable

>  <distance_score>  (10) 
0.858768

>  <score_inspiration>  (10) 
0.811165

>  <original ID>  (10) 
GNGRUWAZVCUSFH-CYBMUJFWSA-N

>  <ref_pdb>  (10) 
7gpm-a

>  <alias>  (10) 
None

$$$$
261
     RDKit          3D

 33 36  0  0  0  0  0  0  0  0999 V2000
   -2.2996   -0.6118   31.6936 C   0  0  0  0  0  0  0  0  0  0  0  0
   -0.9640   -1.2602   31.9579 C   0  0  0  0  0  0  0  0  0  0  0  0
   -0.8348   -2.8895   31.2711 S   0  0  2  0  0  0  0  0  0  0  0  0
   -2.0449   -3.6208   31.5811 O   0  0  0  0  0  0  0  0  0  0  0  0
    0.5780   -3.3950   31.5814 N   0  0  0  0  0  0  0  0  0  0  0  0
    1.1457   -4.5167   30.8216 C   0  0  0  0  0  0  0  0  0  0  0  0
    1.7782   -5.5432   31.7633 C   0  0  0  0  0  0  0  0  0  0  0  0
    0.7700   -6.3611   32.5501 C   0  0  0  0  0  0  0  0  0  0  0  0
   -0.1759   -7.1798   31.9014 C   0  0  0  0  0  0  0  0  0  0  0  0
    0.0338   -7.7230   30.1032 Br  0  0  0  0  0  0  0  0  0  0  0  0
   -1.2485   -7.7412   32.5933 C   0  0  0  0  0  0  0  0  0  0  0  0
   -2.1532   -8.4992   31.9022 O   0  0  0  0  0  0  0  0  0  0  0  0
   -1.3799   -7.5299   33.9544 C   0  0  0  0  0  0  0  0  0  0  0  0
   -0.4010   -6.8158   34.6327 C   0  0  0  0  0  0  0  0  0  0  0  0
    0.6950   -6.2854   33.9560 C   0  0  0  0  0  0  0  0  0  0  0  0
    1.8228   -5.8273   34.7951 C   0  0  0  0  0  0  0  0  0  0  0  0
    2.9768   -5.8320   34.3879 O   0  0  0  0  0  0  0  0  0  0  0  0
    1.5283   -5.5190   36.0735 O   0  0  0  0  0  0  0  0  0  0  0  0
    0.1735   -5.6030   36.5283 C   0  0  0  0  0  0  0  0  0  0  0  0
   -0.5414   -4.2704   36.2844 C   0  0  0  0  0  0  0  0  0  0  0  0
    0.2502   -5.8698   38.0324 C   0  0  0  0  0  0  0  0  0  0  0  0
   -0.5745   -6.6910   35.9785 O   0  0  0  0  0  0  0  0  0  0  0  0
   -0.8749   -2.8051   29.6087 N   0  0  0  0  0  0  0  0  0  0  0  0
    0.0812   -2.1109   28.7839 C   0  0  0  0  0  0  0  0  0  0  0  0
   -0.3207   -0.7146   28.3952 C   0  0  0  0  0  0  0  0  0  0  0  0
    0.5302    0.3741   28.6962 C   0  0  0  0  0  0  0  0  0  0  0  0
    0.2266    1.6666   28.2603 C   0  0  0  0  0  0  0  0  0  0  0  0
   -0.9267    1.8416   27.5294 C   0  0  0  0  0  0  0  0  0  0  0  0
   -1.7630    0.7940   27.2362 C   0  0  0  0  0  0  0  0  0  0  0  0
   -1.4915   -0.4908   27.6525 C   0  0  0  0  0  0  0  0  0  0  0  0
   -2.8272    1.1782   26.4851 O   0  0  0  0  0  0  0  0  0  0  0  0
   -2.6097    2.5998   26.4035 C   0  0  0  0  0  0  0  0  0  0  0  0
   -1.3630    3.0162   27.0037 O   0  0  0  0  0  0  0  0  0  0  0  0
  1  2  1  0
  3  2  1  1
  3  4  2  0
  3  5  2  0
  5  6  1  0
  6  7  1  0
  7  8  1  0
  8  9  2  0
  9 10  1  0
  9 11  1  0
 11 12  1  0
 11 13  2  0
 13 14  1  0
 14 15  2  0
 15 16  1  0
 16 17  2  0
 16 18  1  0
 18 19  1  0
 19 20  1  0
 19 21  1  0
 19 22  1  0
  3 23  1  0
 23 24  1  0
 24 25  1  0
 25 26  2  0
 26 27  1  0
 27 28  2  0
 28 29  1  0
 29 30  2  0
 29 31  1  0
 31 32  1  0
 32 33  1  0
 15  8  1  0
 30 25  1  0
 22 14  1  0
 33 28  1  0
M  END
>  <SLURM_JOB_ID>  (11) 
350558

>  <original SMILES>  (11) 
CC[S@](=O)(=NCCc1c(Br)c(O)cc2c1C(=O)OC(C)(C)O2)NCc1ccc2c(c1)OCO2

>  <tags>  (11) 
Fragmenstein placed

>  <inchikey>  (11) 
BPGUWYNWEIKHFP-XIFFEERXSA-N

>  <scratch_subdir>  (11) 
/opt/xchem-fragalysis-2/maxwin/BulkDock/SCRATCH/350558/C479-P13

>  <name>  (11) 
BPGUWYNWEIKHFP-XIFFEERXSA-N

>  <energy_score>  (11) 
-67.55337

>  <fragmenstein_error>  (11) 
None

>  <csv_name>  (11) 
D68EV3C_iter1_fstein_split1000_batch000.csv

>  <fragmenstein_mode>  (11) 
expansion

>  <HIPPO Compound ID>  (11) 
479

>  <HIPPO Pose ID>  (11) 
261

>  <ref_mols>  (11) 
7gp9-a,7gqh-a

>  <fragmenstein_runtime>  (11) 
4.521108

>  <fragmenstein_outcome>  (11) 
acceptable

>  <distance_score>  (11) 
0.349865

>  <score_inspiration>  (11) 
0.834346

>  <original ID>  (11) 
BPGUWYNWEIKHFP-XIFFEERXSA-N

>  <ref_pdb>  (11) 
7gp9-a

>  <alias>  (11) 
None

$$$$
268
     RDKit          3D

 33 36  0  0  0  0  0  0  0  0999 V2000
   -2.1198   -0.6752   31.7707 C   0  0  0  0  0  0  0  0  0  0  0  0
   -0.7525   -1.2977   31.9606 C   0  0  0  0  0  0  0  0  0  0  0  0
   -0.6259   -2.9230   31.2501 S   0  0  2  0  0  0  0  0  0  0  0  0
   -1.6781   -3.7583   31.7903 O   0  0  0  0  0  0  0  0  0  0  0  0
    0.8454   -3.3186   31.1542 N   0  0  0  0  0  0  0  0  0  0  0  0
    1.5916   -3.9376   32.2496 C   0  0  0  0  0  0  0  0  0  0  0  0
    1.7762   -5.4467   31.9846 C   0  0  0  0  0  0  0  0  0  0  0  0
    0.7432   -6.3084   32.6912 C   0  0  0  0  0  0  0  0  0  0  0  0
   -0.1792   -7.1008   31.9834 C   0  0  0  0  0  0  0  0  0  0  0  0
    0.0149   -7.4558   30.1439 Br  0  0  0  0  0  0  0  0  0  0  0  0
   -1.2332   -7.7467   32.6351 C   0  0  0  0  0  0  0  0  0  0  0  0
   -2.1134   -8.4911   31.8959 O   0  0  0  0  0  0  0  0  0  0  0  0
   -1.3781   -7.6257   34.0073 C   0  0  0  0  0  0  0  0  0  0  0  0
   -0.4366   -6.9087   34.7367 C   0  0  0  0  0  0  0  0  0  0  0  0
    0.6463   -6.3051   34.1023 C   0  0  0  0  0  0  0  0  0  0  0  0
    1.7171   -5.7533   34.9678 C   0  0  0  0  0  0  0  0  0  0  0  0
    2.8186   -5.4473   34.5352 O   0  0  0  0  0  0  0  0  0  0  0  0
    1.4307   -5.6479   36.2764 O   0  0  0  0  0  0  0  0  0  0  0  0
    0.0715   -5.7676   36.6998 C   0  0  0  0  0  0  0  0  0  0  0  0
   -0.6521   -4.4311   36.4960 C   0  0  0  0  0  0  0  0  0  0  0  0
    0.1296   -6.0902   38.1917 C   0  0  0  0  0  0  0  0  0  0  0  0
   -0.6463   -6.8380   36.0818 O   0  0  0  0  0  0  0  0  0  0  0  0
   -1.0423   -2.8187   29.6318 N   0  0  0  0  0  0  0  0  0  0  0  0
   -0.1321   -2.2987   28.6277 C   0  0  0  0  0  0  0  0  0  0  0  0
   -0.3916   -0.8565   28.2866 C   0  0  0  0  0  0  0  0  0  0  0  0
    0.5453    0.1477   28.6148 C   0  0  0  0  0  0  0  0  0  0  0  0
    0.3351    1.4754   28.2289 C   0  0  0  0  0  0  0  0  0  0  0  0
   -0.8112    1.7653   27.5208 C   0  0  0  0  0  0  0  0  0  0  0  0
   -1.7304    0.7970   27.2042 C   0  0  0  0  0  0  0  0  0  0  0  0
   -1.5549   -0.5153   27.5784 C   0  0  0  0  0  0  0  0  0  0  0  0
   -2.7724    1.2861   26.4823 O   0  0  0  0  0  0  0  0  0  0  0  0
   -2.4435    2.6875   26.4431 C   0  0  0  0  0  0  0  0  0  0  0  0
   -1.1645    2.9883   27.0439 O   0  0  0  0  0  0  0  0  0  0  0  0
  1  2  1  0
  3  2  1  1
  3  4  2  0
  3  5  2  0
  5  6  1  0
  6  7  1  0
  7  8  1  0
  8  9  2  0
  9 10  1  0
  9 11  1  0
 11 12  1  0
 11 13  2  0
 13 14  1  0
 14 15  2  0
 15 16  1  0
 16 17  2  0
 16 18  1  0
 18 19  1  0
 19 20  1  0
 19 21  1  0
 19 22  1  0
  3 23  1  0
 23 24  1  0
 24 25  1  0
 25 26  2  0
 26 27  1  0
 27 28  2  0
 28 29  1  0
 29 30  2  0
 29 31  1  0
 31 32  1  0
 32 33  1  0
 15  8  1  0
 30 25  1  0
 22 14  1  0
 33 28  1  0
M  END
>  <SLURM_JOB_ID>  (12) 
350558

>  <original SMILES>  (12) 
CC[S@](=O)(=NCCc1c(Br)c(O)cc2c1C(=O)OC(C)(C)O2)NCc1ccc2c(c1)OCO2

>  <tags>  (12) 
Fragmenstein placed

>  <inchikey>  (12) 
BPGUWYNWEIKHFP-XIFFEERXSA-N

>  <scratch_subdir>  (12) 
/opt/xchem-fragalysis-2/maxwin/BulkDock/SCRATCH/350558/C479-P78

>  <name>  (12) 
BPGUWYNWEIKHFP-XIFFEERXSA-N

>  <energy_score>  (12) 
-73.8493

>  <fragmenstein_error>  (12) 
None

>  <csv_name>  (12) 
D68EV3C_iter1_fstein_split1000_batch000.csv

>  <fragmenstein_mode>  (12) 
expansion

>  <HIPPO Compound ID>  (12) 
479

>  <HIPPO Pose ID>  (12) 
268

>  <ref_mols>  (12) 
7gp9-a,7gqh-a

>  <fragmenstein_runtime>  (12) 
4.524566

>  <fragmenstein_outcome>  (12) 
acceptable

>  <distance_score>  (12) 
0.421643

>  <score_inspiration>  (12) 
0.819757

>  <original ID>  (12) 
BPGUWYNWEIKHFP-XIFFEERXSA-N

>  <ref_pdb>  (12) 
7gqh-a

>  <alias>  (12) 
None

$$$$
276
     RDKit          3D

 31 34  0  0  0  0  0  0  0  0999 V2000
   -2.1372   -3.7083   31.6094 O   0  0  0  0  0  0  0  0  0  0  0  0
   -0.9451   -2.9887   31.2216 S   0  0  0  0  0  0  0  0  0  0  0  0
    0.3520   -3.6245   31.3234 O   0  0  0  0  0  0  0  0  0  0  0  0
   -0.8641   -1.4264   32.0828 C   0  0  0  0  0  0  0  0  0  0  0  0
   -2.1912   -0.6781   32.2061 C   0  0  0  0  0  0  0  0  0  0  0  0
   -2.3247   -0.2411   33.5985 N   0  0  0  0  0  0  0  0  0  0  0  0
   -3.5332    0.4119   34.0745 C   0  0  0  0  0  0  0  0  0  0  0  0
   -4.9586   -0.1279   33.7450 C   0  0  2  0  0  0  0  0  0  0  0  0
   -6.0018    0.6026   34.6230 C   0  0  0  0  0  0  0  0  0  0  0  0
   -6.3673   -0.1133   35.8515 N   0  0  0  0  0  0  0  0  0  0  0  0
   -7.1181    0.7138   36.7845 C   0  0  0  0  0  0  0  0  0  0  0  0
   -8.3361   -0.0285   37.2718 C   0  0  0  0  0  0  0  0  0  0  0  0
   -8.9680    0.2297   38.5348 C   0  0  0  0  0  0  0  0  0  0  0  0
  -10.0970   -0.5332   38.7348 C   0  0  0  0  0  0  0  0  0  0  0  0
  -10.4071   -1.5757   37.4178 S   0  0  0  0  0  0  0  0  0  0  0  0
   -9.0440   -0.9917   36.5700 C   0  0  0  0  0  0  0  0  0  0  0  0
   -5.3108   -0.9312   36.4316 C   0  0  0  0  0  0  0  0  0  0  0  0
   -4.7494   -1.9141   35.3890 C   0  0  0  0  0  0  0  0  0  0  0  0
   -5.2344   -1.5964   33.9901 C   0  0  2  0  0  0  0  0  0  0  0  0
   -4.7092   -2.4439   32.9951 O   0  0  0  0  0  0  0  0  0  0  0  0
   -1.1673   -2.5645   29.6406 N   0  0  0  0  0  0  0  0  0  0  0  0
   -0.0445   -2.0800   28.8454 C   0  0  0  0  0  0  0  0  0  0  0  0
   -0.3240   -0.6957   28.3219 C   0  0  0  0  0  0  0  0  0  0  0  0
    0.6139    0.3449   28.5079 C   0  0  0  0  0  0  0  0  0  0  0  0
    0.3584    1.6335   28.0300 C   0  0  0  0  0  0  0  0  0  0  0  0
   -0.8340    1.8508   27.3755 C   0  0  0  0  0  0  0  0  0  0  0  0
   -1.7476    0.8456   27.1820 C   0  0  0  0  0  0  0  0  0  0  0  0
   -1.5207   -0.4340   27.6334 C   0  0  0  0  0  0  0  0  0  0  0  0
   -2.8457    1.2663   26.5028 O   0  0  0  0  0  0  0  0  0  0  0  0
   -2.5625    2.6724   26.3687 C   0  0  0  0  0  0  0  0  0  0  0  0
   -1.2438    3.0310   26.8407 O   0  0  0  0  0  0  0  0  0  0  0  0
  1  2  2  0
  2  3  2  0
  2  4  1  0
  4  5  1  0
  5  6  1  0
  6  7  1  0
  8  7  1  1
  8  9  1  0
  9 10  1  0
 10 11  1  0
 11 12  1  0
 12 13  1  0
 13 14  2  0
 14 15  1  0
 15 16  1  0
 10 17  1  0
 17 18  1  0
 18 19  1  0
 19 20  1  6
  2 21  1  0
 21 22  1  0
 22 23  1  0
 23 24  2  0
 24 25  1  0
 25 26  2  0
 26 27  1  0
 27 28  2  0
 27 29  1  0
 29 30  1  0
 30 31  1  0
 19  8  1  0
 28 23  1  0
 16 12  2  0
 31 26  1  0
M  END
>  <SLURM_JOB_ID>  (13) 
350558

>  <original SMILES>  (13) 
O=S(=O)(CCNC[C@@H]1CN(Cc2ccsc2)CC[C@@H]1O)NCc1ccc2c(c1)OCO2

>  <tags>  (13) 
Fragmenstein placed

>  <inchikey>  (13) 
JCAIMIBYGYDFJZ-MOPGFXCFSA-N

>  <scratch_subdir>  (13) 
/opt/xchem-fragalysis-2/maxwin/BulkDock/SCRATCH/350558/C481-P13

>  <name>  (13) 
JCAIMIBYGYDFJZ-MOPGFXCFSA-N

>  <energy_score>  (13) 
-59.800827

>  <fragmenstein_error>  (13) 
None

>  <csv_name>  (13) 
D68EV3C_iter1_fstein_split1000_batch000.csv

>  <fragmenstein_mode>  (13) 
expansion

>  <HIPPO Compound ID>  (13) 
481

>  <HIPPO Pose ID>  (13) 
276

>  <ref_mols>  (13) 
7gp9-a,7gpk-a

>  <fragmenstein_runtime>  (13) 
3.359609

>  <fragmenstein_outcome>  (13) 
acceptable

>  <distance_score>  (13) 
0.503614

>  <score_inspiration>  (13) 
0.72618

>  <original ID>  (13) 
JCAIMIBYGYDFJZ-MOPGFXCFSA-N

>  <ref_pdb>  (13) 
7gp9-a

>  <alias>  (13) 
None

$$$$
281
     RDKit          3D

 31 34  0  0  0  0  0  0  0  0999 V2000
   -2.1967   -3.6138   31.6027 O   0  0  0  0  0  0  0  0  0  0  0  0
   -0.9632   -2.9273   31.2882 S   0  0  0  0  0  0  0  0  0  0  0  0
    0.3118   -3.5957   31.4388 O   0  0  0  0  0  0  0  0  0  0  0  0
   -0.8922   -1.3737   32.1729 C   0  0  0  0  0  0  0  0  0  0  0  0
   -2.2041   -0.5924   32.2054 C   0  0  0  0  0  0  0  0  0  0  0  0
   -2.3440   -0.0039   33.5378 N   0  0  0  0  0  0  0  0  0  0  0  0
   -3.6208    0.5417   33.9721 C   0  0  0  0  0  0  0  0  0  0  0  0
   -4.9650   -0.2201   33.7668 C   0  0  2  0  0  0  0  0  0  0  0  0
   -6.0683    0.4908   34.5853 C   0  0  0  0  0  0  0  0  0  0  0  0
   -6.3796   -0.1590   35.8677 N   0  0  0  0  0  0  0  0  0  0  0  0
   -7.1942    0.6999   36.7223 C   0  0  0  0  0  0  0  0  0  0  0  0
   -8.3798   -0.0645   37.2477 C   0  0  0  0  0  0  0  0  0  0  0  0
   -8.9943    0.2012   38.5176 C   0  0  0  0  0  0  0  0  0  0  0  0
  -10.1036   -0.5809   38.7493 C   0  0  0  0  0  0  0  0  0  0  0  0
  -10.4149   -1.6502   37.4542 S   0  0  0  0  0  0  0  0  0  0  0  0
   -9.0772   -1.0546   36.5738 C   0  0  0  0  0  0  0  0  0  0  0  0
   -5.2416   -0.7911   36.5398 C   0  0  0  0  0  0  0  0  0  0  0  0
   -4.4908   -1.7720   35.6182 C   0  0  0  0  0  0  0  0  0  0  0  0
   -5.0331   -1.6855   34.2004 C   0  0  2  0  0  0  0  0  0  0  0  0
   -4.3988   -2.5842   33.3196 O   0  0  0  0  0  0  0  0  0  0  0  0
   -1.1035   -2.4795   29.6985 N   0  0  0  0  0  0  0  0  0  0  0  0
    0.0641   -1.9541   28.9891 C   0  0  0  0  0  0  0  0  0  0  0  0
   -0.2021   -0.5612   28.4686 C   0  0  0  0  0  0  0  0  0  0  0  0
    0.8270    0.4057   28.4656 C   0  0  0  0  0  0  0  0  0  0  0  0
    0.6124    1.6853   27.9405 C   0  0  0  0  0  0  0  0  0  0  0  0
   -0.6264    1.9646   27.4077 C   0  0  0  0  0  0  0  0  0  0  0  0
   -1.6274    1.0293   27.3892 C   0  0  0  0  0  0  0  0  0  0  0  0
   -1.4517   -0.2288   27.9204 C   0  0  0  0  0  0  0  0  0  0  0  0
   -2.7452    1.4796   26.7616 O   0  0  0  0  0  0  0  0  0  0  0  0
   -2.3802    2.8494   26.4958 C   0  0  0  0  0  0  0  0  0  0  0  0
   -1.0005    3.1307   26.8193 O   0  0  0  0  0  0  0  0  0  0  0  0
  1  2  2  0
  2  3  2  0
  2  4  1  0
  4  5  1  0
  5  6  1  0
  6  7  1  0
  8  7  1  1
  8  9  1  0
  9 10  1  0
 10 11  1  0
 11 12  1  0
 12 13  1  0
 13 14  2  0
 14 15  1  0
 15 16  1  0
 10 17  1  0
 17 18  1  0
 18 19  1  0
 19 20  1  6
  2 21  1  0
 21 22  1  0
 22 23  1  0
 23 24  2  0
 24 25  1  0
 25 26  2  0
 26 27  1  0
 27 28  2  0
 27 29  1  0
 29 30  1  0
 30 31  1  0
 19  8  1  0
 28 23  1  0
 16 12  2  0
 31 26  1  0
M  END
>  <SLURM_JOB_ID>  (14) 
350558

>  <original SMILES>  (14) 
O=S(=O)(CCNC[C@@H]1CN(Cc2ccsc2)CC[C@@H]1O)NCc1ccc2c(c1)OCO2

>  <tags>  (14) 
Fragmenstein placed

>  <inchikey>  (14) 
JCAIMIBYGYDFJZ-MOPGFXCFSA-N

>  <scratch_subdir>  (14) 
/opt/xchem-fragalysis-2/maxwin/BulkDock/SCRATCH/350558/C481-P121

>  <name>  (14) 
JCAIMIBYGYDFJZ-MOPGFXCFSA-N

>  <energy_score>  (14) 
-63.408695

>  <fragmenstein_error>  (14) 
None

>  <csv_name>  (14) 
D68EV3C_iter1_fstein_split1000_batch000.csv

>  <fragmenstein_mode>  (14) 
expansion

>  <HIPPO Compound ID>  (14) 
481

>  <HIPPO Pose ID>  (14) 
281

>  <ref_mols>  (14) 
7gp9-a,7gpk-a

>  <fragmenstein_runtime>  (14) 
3.767409

>  <fragmenstein_outcome>  (14) 
acceptable

>  <distance_score>  (14) 
0.586587

>  <score_inspiration>  (14) 
0.689322

>  <original ID>  (14) 
JCAIMIBYGYDFJZ-MOPGFXCFSA-N

>  <ref_pdb>  (14) 
7gpk-a

>  <alias>  (14) 
None

$$$$
299
     RDKit          3D

 29 32  0  0  0  0  0  0  0  0999 V2000
   -0.3768   -1.8803   32.6059 O   0  0  0  0  0  0  0  0  0  0  0  0
   -0.7603   -2.5739   31.3996 S   0  0  0  0  0  0  0  0  0  0  0  0
   -1.9821   -3.3409   31.3123 O   0  0  0  0  0  0  0  0  0  0  0  0
    0.5260   -3.5987   31.0112 N   0  0  0  0  0  0  0  0  0  0  0  0
    0.3647   -4.4859   29.8413 C   0  0  0  0  0  0  0  0  0  0  0  0
    0.8842   -5.8920   30.1303 C   0  0  0  0  0  0  0  0  0  0  0  0
    0.1600   -6.5789   31.1758 N   0  0  0  0  0  0  0  0  0  0  0  0
   -0.8621   -7.4252   30.9122 N   0  0  0  0  0  0  0  0  0  0  0  0
   -1.3748   -7.8171   32.0838 N   0  0  0  0  0  0  0  0  0  0  0  0
   -0.6443   -7.2274   33.0765 C   0  0  0  0  0  0  0  0  0  0  0  0
    0.3588   -6.4839   32.5102 C   0  0  0  0  0  0  0  0  0  0  0  0
    1.2581   -5.6199   33.2928 C   0  0  0  0  0  0  0  0  0  0  0  0
    0.3694   -5.0179   34.3925 C   0  0  0  0  0  0  0  0  0  0  0  0
   -0.2433   -6.0972   35.2343 N   0  0  0  0  0  0  0  0  0  0  0  0
    0.5623   -6.4039   36.6672 S   0  0  0  0  0  0  0  0  0  0  0  0
    1.9706   -6.5096   36.3626 O   0  0  0  0  0  0  0  0  0  0  0  0
   -0.1420   -7.4316   37.3864 O   0  0  0  0  0  0  0  0  0  0  0  0
    0.2598   -4.9385   37.4135 N   0  0  0  0  0  0  0  0  0  0  0  0
    1.2169   -4.5117   38.4660 C   0  0  0  0  0  0  0  0  0  0  0  0
    0.5924   -3.4914   39.4469 C   0  0  0  0  0  0  0  0  0  0  0  0
   -0.2862   -2.5055   38.8045 N   0  0  0  0  0  0  0  0  0  0  0  0
   -1.3505   -3.1647   38.0275 C   0  0  0  0  0  0  0  0  0  0  0  0
   -1.1522   -4.6706   37.7707 C   0  0  0  0  0  0  0  0  0  0  0  0
   -0.8881   -7.2692   34.5468 C   0  0  0  0  0  0  0  0  0  0  0  0
   -0.7866   -1.4123   30.0867 C   0  0  0  0  0  0  0  0  0  0  0  0
   -1.0516   -1.4927   28.7335 C   0  0  0  0  0  0  0  0  0  0  0  0
   -0.9134   -0.2159   28.1258 C   0  0  0  0  0  0  0  0  0  0  0  0
   -0.4911    0.7708   28.9096 N   0  0  0  0  0  0  0  0  0  0  0  0
   -0.3062    0.1763   30.4442 S   0  0  0  0  0  0  0  0  0  0  0  0
  1  2  2  0
  2  3  2  0
  2  4  1  0
  4  5  1  0
  5  6  1  0
  6  7  1  0
  7  8  1  0
  8  9  2  0
  9 10  1  0
 10 11  2  0
 11 12  1  0
 12 13  1  0
 13 14  1  0
 14 15  1  0
 15 16  2  0
 15 17  2  0
 15 18  1  0
 18 19  1  0
 19 20  1  0
 20 21  1  0
 21 22  1  0
 22 23  1  0
 14 24  1  0
  2 25  1  0
 25 26  2  0
 26 27  1  0
 27 28  2  0
 28 29  1  0
 11  7  1  0
 23 18  1  0
 29 25  1  0
 24 10  1  0
M  END
>  <SLURM_JOB_ID>  (15) 
350559

>  <original SMILES>  (15) 
O=S(=O)(NCCn1nnc2c1CCN(S(=O)(=O)N1CCNCC1)C2)c1ccns1

>  <tags>  (15) 
Fragmenstein placed

>  <inchikey>  (15) 
HNNKLVDGAITCBS-UHFFFAOYSA-N

>  <scratch_subdir>  (15) 
/opt/xchem-fragalysis-2/maxwin/BulkDock/SCRATCH/350559/C170-P168

>  <name>  (15) 
HNNKLVDGAITCBS-UHFFFAOYSA-N

>  <energy_score>  (15) 
-100.767326

>  <fragmenstein_error>  (15) 
None

>  <csv_name>  (15) 
D68EV3C_iter1_fstein_split1000_batch001.csv

>  <fragmenstein_mode>  (15) 
expansion

>  <HIPPO Compound ID>  (15) 
170

>  <HIPPO Pose ID>  (15) 
299

>  <ref_mols>  (15) 
B1020a,B1307a

>  <fragmenstein_runtime>  (15) 
4.800312

>  <fragmenstein_outcome>  (15) 
acceptable

>  <distance_score>  (15) 
0.69071

>  <score_inspiration>  (15) 
0.80695

>  <original ID>  (15) 
HNNKLVDGAITCBS-UHFFFAOYSA-N

>  <ref_pdb>  (15) 
B1020a

>  <alias>  (15) 
None

$$$$
308
     RDKit          3D

 29 32  0  0  0  0  0  0  0  0999 V2000
   -0.6271   -2.0779   32.9020 O   0  0  0  0  0  0  0  0  0  0  0  0
   -0.9542   -2.7575   31.6717 S   0  0  0  0  0  0  0  0  0  0  0  0
   -2.0976   -3.6285   31.5341 O   0  0  0  0  0  0  0  0  0  0  0  0
    0.4336   -3.6074   31.2186 N   0  0  0  0  0  0  0  0  0  0  0  0
    0.3702   -4.4795   30.0252 C   0  0  0  0  0  0  0  0  0  0  0  0
    0.9993   -5.8375   30.3131 C   0  0  0  0  0  0  0  0  0  0  0  0
    0.2876   -6.5890   31.3211 N   0  0  0  0  0  0  0  0  0  0  0  0
   -0.7039   -7.4613   31.0296 N   0  0  0  0  0  0  0  0  0  0  0  0
   -1.2233   -7.8801   32.1906 N   0  0  0  0  0  0  0  0  0  0  0  0
   -0.5251   -7.2796   33.2024 C   0  0  0  0  0  0  0  0  0  0  0  0
    0.4642   -6.5041   32.6572 C   0  0  0  0  0  0  0  0  0  0  0  0
    1.3114   -5.5969   33.4467 C   0  0  0  0  0  0  0  0  0  0  0  0
    0.3708   -5.0264   34.5164 C   0  0  0  0  0  0  0  0  0  0  0  0
   -0.1945   -6.1263   35.3621 N   0  0  0  0  0  0  0  0  0  0  0  0
    0.6506   -6.3931   36.7798 S   0  0  0  0  0  0  0  0  0  0  0  0
    2.0553   -6.4682   36.4501 O   0  0  0  0  0  0  0  0  0  0  0  0
   -0.0064   -7.4233   37.5363 O   0  0  0  0  0  0  0  0  0  0  0  0
    0.3319   -4.9200   37.5071 N   0  0  0  0  0  0  0  0  0  0  0  0
    1.2778   -4.4740   38.5597 C   0  0  0  0  0  0  0  0  0  0  0  0
    0.6371   -3.4516   39.5276 C   0  0  0  0  0  0  0  0  0  0  0  0
   -0.2412   -2.4745   38.8713 N   0  0  0  0  0  0  0  0  0  0  0  0
   -1.2937   -3.1473   38.0886 C   0  0  0  0  0  0  0  0  0  0  0  0
   -1.0846   -4.6542   37.8483 C   0  0  0  0  0  0  0  0  0  0  0  0
   -0.7974   -7.3220   34.6700 C   0  0  0  0  0  0  0  0  0  0  0  0
   -1.1140   -1.5466   30.4281 C   0  0  0  0  0  0  0  0  0  0  0  0
   -1.1765   -1.6142   29.0536 C   0  0  0  0  0  0  0  0  0  0  0  0
   -1.0273   -0.3154   28.5213 C   0  0  0  0  0  0  0  0  0  0  0  0
   -1.0043    0.7030   29.3728 N   0  0  0  0  0  0  0  0  0  0  0  0
   -1.0629    0.0814   30.9060 S   0  0  0  0  0  0  0  0  0  0  0  0
  1  2  2  0
  2  3  2  0
  2  4  1  0
  4  5  1  0
  5  6  1  0
  6  7  1  0
  7  8  1  0
  8  9  2  0
  9 10  1  0
 10 11  2  0
 11 12  1  0
 12 13  1  0
 13 14  1  0
 14 15  1  0
 15 16  2  0
 15 17  2  0
 15 18  1  0
 18 19  1  0
 19 20  1  0
 20 21  1  0
 21 22  1  0
 22 23  1  0
 14 24  1  0
  2 25  1  0
 25 26  2  0
 26 27  1  0
 27 28  2  0
 28 29  1  0
 11  7  1  0
 23 18  1  0
 29 25  1  0
 24 10  1  0
M  END
>  <SLURM_JOB_ID>  (16) 
350559

>  <original SMILES>  (16) 
O=S(=O)(NCCn1nnc2c1CCN(S(=O)(=O)N1CCNCC1)C2)c1ccns1

>  <tags>  (16) 
Fragmenstein placed

>  <inchikey>  (16) 
HNNKLVDGAITCBS-UHFFFAOYSA-N

>  <scratch_subdir>  (16) 
/opt/xchem-fragalysis-2/maxwin/BulkDock/SCRATCH/350559/C170-P186

>  <name>  (16) 
HNNKLVDGAITCBS-UHFFFAOYSA-N

>  <energy_score>  (16) 
-97.512676

>  <fragmenstein_error>  (16) 
None

>  <csv_name>  (16) 
D68EV3C_iter1_fstein_split1000_batch001.csv

>  <fragmenstein_mode>  (16) 
expansion

>  <HIPPO Compound ID>  (16) 
170

>  <HIPPO Pose ID>  (16) 
308

>  <ref_mols>  (16) 
B1020a,B1307a

>  <fragmenstein_runtime>  (16) 
6.960829

>  <fragmenstein_outcome>  (16) 
acceptable

>  <distance_score>  (16) 
0.685469

>  <score_inspiration>  (16) 
0.847116

>  <original ID>  (16) 
HNNKLVDGAITCBS-UHFFFAOYSA-N

>  <ref_pdb>  (16) 
B1307a

>  <alias>  (16) 
None

$$$$
322
     RDKit          3D

 37 41  0  0  0  0  0  0  0  0999 V2000
   -2.5352   -2.3756   31.8960 C   0  0  0  0  0  0  0  0  0  0  0  0
   -1.7227   -1.5415   30.9241 C   0  0  0  0  0  0  0  0  0  0  0  0
   -0.1372   -1.1386   31.6067 S   0  0  1  0  0  0  0  0  0  0  0  0
   -0.3373   -0.8453   33.0096 O   0  0  0  0  0  0  0  0  0  0  0  0
    0.9518   -2.0857   31.0793 N   0  0  0  0  0  0  0  0  0  0  0  0
    2.0122   -2.4687   32.0184 C   0  0  0  0  0  0  0  0  0  0  0  0
    2.9900   -1.5137   32.3091 C   0  0  0  0  0  0  0  0  0  0  0  0
    3.8807   -1.7217   33.3522 C   0  0  0  0  0  0  0  0  0  0  0  0
    3.8125   -2.8975   34.0929 C   0  0  0  0  0  0  0  0  0  0  0  0
    4.6975   -3.0102   35.1948 N   0  0  0  0  0  0  0  0  0  0  0  0
    4.3914   -3.9915   36.5113 S   0  0  0  0  0  0  0  0  0  0  0  0
    2.7790   -3.4617   37.0659 C   0  0  0  0  0  0  0  0  0  0  0  0
    4.3041   -5.3646   36.0643 O   0  0  0  0  0  0  0  0  0  0  0  0
    5.3506   -3.5866   37.5149 O   0  0  0  0  0  0  0  0  0  0  0  0
    2.9502   -3.9213   33.6918 C   0  0  0  0  0  0  0  0  0  0  0  0
    2.0083   -3.7133   32.6763 C   0  0  0  0  0  0  0  0  0  0  0  0
    1.0832   -4.8099   32.2988 C   0  0  0  0  0  0  0  0  0  0  0  0
    0.8142   -5.1126   30.8920 C   0  0  0  0  0  0  0  0  0  0  0  0
   -0.0634   -6.0522   30.5277 C   0  0  0  0  0  0  0  0  0  0  0  0
   -0.6918   -6.8573   31.4862 C   0  0  0  0  0  0  0  0  0  0  0  0
   -1.5235   -7.8624   31.3693 N   0  0  0  0  0  0  0  0  0  0  0  0
   -1.8489   -8.2502   32.6366 N   0  0  0  0  0  0  0  0  0  0  0  0
   -1.2052   -7.4904   33.4982 C   0  0  0  0  0  0  0  0  0  0  0  0
   -1.2350   -7.6190   34.8461 N   0  0  0  0  0  0  0  0  0  0  0  0
   -0.4404   -6.5687   32.8132 N   0  0  0  0  0  0  0  0  0  0  0  0
    0.4273   -5.5507   33.2262 C   0  0  0  0  0  0  0  0  0  0  0  0
    0.3891    0.3724   31.0520 N   0  0  0  0  0  0  0  0  0  0  0  0
    1.1159    0.5365   29.7993 C   0  0  0  0  0  0  0  0  0  0  0  0
    0.1527    0.6739   28.6605 C   0  0  0  0  0  0  0  0  0  0  0  0
   -0.4763   -0.4674   28.1239 C   0  0  0  0  0  0  0  0  0  0  0  0
   -1.5789   -0.3363   27.2861 C   0  0  0  0  0  0  0  0  0  0  0  0
   -1.9498    0.9322   26.9135 C   0  0  0  0  0  0  0  0  0  0  0  0
   -1.2790    2.0436   27.3529 C   0  0  0  0  0  0  0  0  0  0  0  0
   -0.2317    1.9522   28.2350 C   0  0  0  0  0  0  0  0  0  0  0  0
   -1.7922    3.1955   26.8517 O   0  0  0  0  0  0  0  0  0  0  0  0
   -2.9218    2.6839   26.1140 C   0  0  0  0  0  0  0  0  0  0  0  0
   -2.9755    1.2463   26.0858 O   0  0  0  0  0  0  0  0  0  0  0  0
  1  2  1  0
  3  2  1  6
  3  4  2  0
  3  5  2  0
  5  6  1  0
  6  7  2  0
  7  8  1  0
  8  9  2  0
  9 10  1  0
 10 11  1  0
 11 12  1  0
 11 13  2  0
 11 14  2  0
  9 15  1  0
 15 16  2  0
 16 17  1  0
 17 18  1  0
 18 19  2  0
 19 20  1  0
 20 21  2  0
 21 22  1  0
 22 23  2  0
 23 24  1  0
 23 25  1  0
 25 26  1  0
  3 27  1  0
 27 28  1  0
 28 29  1  0
 29 30  2  0
 30 31  1  0
 31 32  2  0
 32 33  1  0
 33 34  2  0
 33 35  1  0
 35 36  1  0
 36 37  1  0
 16  6  1  0
 26 17  2  0
 34 29  1  0
 25 20  1  0
 37 32  1  0
M  END
>  <SLURM_JOB_ID>  (17) 
350558

>  <original SMILES>  (17) 
CC[S@@](=O)(=Nc1ccc(NS(C)(=O)=O)cc1-c1ccc2nnc(N)n2c1)NCc1ccc2c(c1)OCO2

>  <tags>  (17) 
Fragmenstein placed

>  <inchikey>  (17) 
PMIXLSGFTADAMU-QNGWXLTQSA-N

>  <scratch_subdir>  (17) 
/opt/xchem-fragalysis-2/maxwin/BulkDock/SCRATCH/350558/C483-P13

>  <name>  (17) 
PMIXLSGFTADAMU-QNGWXLTQSA-N

>  <energy_score>  (17) 
-106.103318

>  <fragmenstein_error>  (17) 
None

>  <csv_name>  (17) 
D68EV3C_iter1_fstein_split1000_batch000.csv

>  <fragmenstein_mode>  (17) 
expansion

>  <HIPPO Compound ID>  (17) 
483

>  <HIPPO Pose ID>  (17) 
322

>  <ref_mols>  (17) 
7gp9-a,B0439a

>  <fragmenstein_runtime>  (17) 
5.660014

>  <fragmenstein_outcome>  (17) 
acceptable

>  <distance_score>  (17) 
0.892701

>  <score_inspiration>  (17) 
0.721696

>  <original ID>  (17) 
PMIXLSGFTADAMU-QNGWXLTQSA-N

>  <ref_pdb>  (17) 
7gp9-a

>  <alias>  (17) 
None

$$$$
329
     RDKit          3D

 37 41  0  0  0  0  0  0  0  0999 V2000
   -1.9859   -2.1067   30.2016 C   0  0  0  0  0  0  0  0  0  0  0  0
   -0.6486   -2.7362   30.3424 C   0  0  0  0  0  0  0  0  0  0  0  0
    0.4627   -1.7700   31.2756 S   0  0  1  0  0  0  0  0  0  0  0  0
   -0.0902   -1.6386   32.6072 O   0  0  0  0  0  0  0  0  0  0  0  0
    1.8523   -2.3210   30.9399 N   0  0  0  0  0  0  0  0  0  0  0  0
    2.6666   -2.6853   32.0700 C   0  0  0  0  0  0  0  0  0  0  0  0
    3.5736   -1.7045   32.4664 C   0  0  0  0  0  0  0  0  0  0  0  0
    4.2621   -1.8615   33.6488 C   0  0  0  0  0  0  0  0  0  0  0  0
    4.0475   -3.0033   34.4158 C   0  0  0  0  0  0  0  0  0  0  0  0
    4.7642   -3.0649   35.6303 N   0  0  0  0  0  0  0  0  0  0  0  0
    4.3909   -4.0989   36.8739 S   0  0  0  0  0  0  0  0  0  0  0  0
    2.7182   -3.6428   37.3015 C   0  0  0  0  0  0  0  0  0  0  0  0
    4.4016   -5.4571   36.3764 O   0  0  0  0  0  0  0  0  0  0  0  0
    5.2487   -3.6885   37.9629 O   0  0  0  0  0  0  0  0  0  0  0  0
    3.2144   -4.0335   33.9545 C   0  0  0  0  0  0  0  0  0  0  0  0
    2.4686   -3.8821   32.7886 C   0  0  0  0  0  0  0  0  0  0  0  0
    1.5349   -4.9619   32.3460 C   0  0  0  0  0  0  0  0  0  0  0  0
    1.4920   -5.3850   30.9430 C   0  0  0  0  0  0  0  0  0  0  0  0
    0.6169   -6.2932   30.4906 C   0  0  0  0  0  0  0  0  0  0  0  0
   -0.2701   -6.9327   31.3779 C   0  0  0  0  0  0  0  0  0  0  0  0
   -1.1915   -7.8478   31.1921 N   0  0  0  0  0  0  0  0  0  0  0  0
   -1.6842   -8.1778   32.4266 N   0  0  0  0  0  0  0  0  0  0  0  0
   -1.0669   -7.4585   33.3409 C   0  0  0  0  0  0  0  0  0  0  0  0
   -1.2060   -7.5899   34.6819 N   0  0  0  0  0  0  0  0  0  0  0  0
   -0.1795   -6.5929   32.7185 N   0  0  0  0  0  0  0  0  0  0  0  0
    0.6919   -5.6003   33.1995 C   0  0  0  0  0  0  0  0  0  0  0  0
    0.6074   -0.1643   30.8096 N   0  0  0  0  0  0  0  0  0  0  0  0
    1.3450    0.2601   29.6296 C   0  0  0  0  0  0  0  0  0  0  0  0
    0.3646    0.6426   28.5648 C   0  0  0  0  0  0  0  0  0  0  0  0
   -0.3736   -0.3732   27.9383 C   0  0  0  0  0  0  0  0  0  0  0  0
   -1.4957   -0.0781   27.1832 C   0  0  0  0  0  0  0  0  0  0  0  0
   -1.7587    1.2355   26.9239 C   0  0  0  0  0  0  0  0  0  0  0  0
   -0.9831    2.2399   27.4409 C   0  0  0  0  0  0  0  0  0  0  0  0
    0.0705    1.9821   28.2879 C   0  0  0  0  0  0  0  0  0  0  0  0
   -1.3957    3.4649   27.0286 O   0  0  0  0  0  0  0  0  0  0  0  0
   -2.5805    3.1049   26.2831 C   0  0  0  0  0  0  0  0  0  0  0  0
   -2.7499    1.6886   26.1218 O   0  0  0  0  0  0  0  0  0  0  0  0
  1  2  1  0
  3  2  1  6
  3  4  2  0
  3  5  2  0
  5  6  1  0
  6  7  2  0
  7  8  1  0
  8  9  2  0
  9 10  1  0
 10 11  1  0
 11 12  1  0
 11 13  2  0
 11 14  2  0
  9 15  1  0
 15 16  2  0
 16 17  1  0
 17 18  1  0
 18 19  2  0
 19 20  1  0
 20 21  2  0
 21 22  1  0
 22 23  2  0
 23 24  1  0
 23 25  1  0
 25 26  1  0
  3 27  1  0
 27 28  1  0
 28 29  1  0
 29 30  2  0
 30 31  1  0
 31 32  2  0
 32 33  1  0
 33 34  2  0
 33 35  1  0
 35 36  1  0
 36 37  1  0
 16  6  1  0
 26 17  2  0
 34 29  1  0
 25 20  1  0
 37 32  1  0
M  END
>  <SLURM_JOB_ID>  (18) 
350558

>  <original SMILES>  (18) 
CC[S@@](=O)(=Nc1ccc(NS(C)(=O)=O)cc1-c1ccc2nnc(N)n2c1)NCc1ccc2c(c1)OCO2

>  <tags>  (18) 
Fragmenstein placed

>  <inchikey>  (18) 
PMIXLSGFTADAMU-QNGWXLTQSA-N

>  <scratch_subdir>  (18) 
/opt/xchem-fragalysis-2/maxwin/BulkDock/SCRATCH/350558/C483-P129

>  <name>  (18) 
PMIXLSGFTADAMU-QNGWXLTQSA-N

>  <energy_score>  (18) 
-99.17926

>  <fragmenstein_error>  (18) 
None

>  <csv_name>  (18) 
D68EV3C_iter1_fstein_split1000_batch000.csv

>  <fragmenstein_mode>  (18) 
expansion

>  <HIPPO Compound ID>  (18) 
483

>  <HIPPO Pose ID>  (18) 
329

>  <ref_mols>  (18) 
7gp9-a,B0439a

>  <fragmenstein_runtime>  (18) 
4.319285

>  <fragmenstein_outcome>  (18) 
acceptable

>  <distance_score>  (18) 
0.934152

>  <score_inspiration>  (18) 
0.638806

>  <original ID>  (18) 
PMIXLSGFTADAMU-QNGWXLTQSA-N

>  <ref_pdb>  (18) 
B0439a

>  <alias>  (18) 
None

$$$$
345
     RDKit          3D

 37 41  0  0  0  0  0  0  0  0999 V2000
   -2.3529   -0.7104   31.7816 C   0  0  0  0  0  0  0  0  0  0  0  0
   -0.8555   -0.9069   31.7850 C   0  0  0  0  0  0  0  0  0  0  0  0
   -0.3740   -2.5167   31.2192 S   0  0  2  0  0  0  0  0  0  0  0  0
   -1.0323   -3.4968   32.0487 O   0  0  0  0  0  0  0  0  0  0  0  0
    1.1012   -2.5577   30.8443 N   0  0  0  0  0  0  0  0  0  0  0  0
    2.1254   -1.9089   31.6084 C   0  0  0  0  0  0  0  0  0  0  0  0
    2.7436   -2.6486   32.7679 C   0  0  0  0  0  0  0  0  0  0  0  0
    3.6924   -1.8435   33.4351 C   0  0  0  0  0  0  0  0  0  0  0  0
    4.4800   -2.3398   34.4597 C   0  0  0  0  0  0  0  0  0  0  0  0
    5.4042   -1.5177   35.0446 O   0  0  0  0  0  0  0  0  0  0  0  0
    6.5011   -1.2783   34.1611 C   0  0  0  0  0  0  0  0  0  0  0  0
    4.3130   -3.6470   34.9003 C   0  0  0  0  0  0  0  0  0  0  0  0
    5.1161   -4.0496   35.9296 O   0  0  0  0  0  0  0  0  0  0  0  0
    5.4130   -5.4373   35.9824 C   0  0  0  0  0  0  0  0  0  0  0  0
    3.3514   -4.4521   34.2846 C   0  0  0  0  0  0  0  0  0  0  0  0
    2.5625   -3.9816   33.2089 C   0  0  0  0  0  0  0  0  0  0  0  0
    1.6694   -4.9915   32.5874 C   0  0  0  0  0  0  0  0  0  0  0  0
    1.8297   -5.4006   31.1934 C   0  0  0  0  0  0  0  0  0  0  0  0
    0.9983   -6.2697   30.5987 C   0  0  0  0  0  0  0  0  0  0  0  0
   -0.0435   -6.8780   31.3354 C   0  0  0  0  0  0  0  0  0  0  0  0
   -0.9708   -7.7539   31.0154 N   0  0  0  0  0  0  0  0  0  0  0  0
   -1.6297   -8.0927   32.1720 N   0  0  0  0  0  0  0  0  0  0  0  0
   -1.1051   -7.4110   33.1702 C   0  0  0  0  0  0  0  0  0  0  0  0
   -1.3795   -7.5810   34.4902 N   0  0  0  0  0  0  0  0  0  0  0  0
   -0.1258   -6.5610   32.6829 N   0  0  0  0  0  0  0  0  0  0  0  0
    0.7061   -5.6200   33.3058 C   0  0  0  0  0  0  0  0  0  0  0  0
   -1.0791   -2.7978   29.7318 N   0  0  0  0  0  0  0  0  0  0  0  0
   -0.4270   -2.4132   28.4931 C   0  0  0  0  0  0  0  0  0  0  0  0
   -0.5512   -0.9471   28.1771 C   0  0  0  0  0  0  0  0  0  0  0  0
    0.5133   -0.0451   28.3924 C   0  0  0  0  0  0  0  0  0  0  0  0
    0.3911    1.3029   28.0378 C   0  0  0  0  0  0  0  0  0  0  0  0
   -0.7943    1.7105   27.4632 C   0  0  0  0  0  0  0  0  0  0  0  0
   -1.8322    0.8387   27.2512 C   0  0  0  0  0  0  0  0  0  0  0  0
   -1.7447   -0.4859   27.6060 C   0  0  0  0  0  0  0  0  0  0  0  0
   -2.8944    1.4279   26.6449 O   0  0  0  0  0  0  0  0  0  0  0  0
   -2.4394    2.7903   26.5612 C   0  0  0  0  0  0  0  0  0  0  0  0
   -1.0778    2.9645   27.0212 O   0  0  0  0  0  0  0  0  0  0  0  0
  1  2  1  0
  3  2  1  1
  3  4  2  0
  3  5  2  0
  5  6  1  0
  6  7  1  0
  7  8  2  0
  8  9  1  0
  9 10  1  0
 10 11  1  0
  9 12  2  0
 12 13  1  0
 13 14  1  0
 12 15  1  0
 15 16  2  0
 16 17  1  0
 17 18  1  0
 18 19  2  0
 19 20  1  0
 20 21  2  0
 21 22  1  0
 22 23  2  0
 23 24  1  0
 23 25  1  0
 25 26  1  0
  3 27  1  0
 27 28  1  0
 28 29  1  0
 29 30  2  0
 30 31  1  0
 31 32  2  0
 32 33  1  0
 33 34  2  0
 33 35  1  0
 35 36  1  0
 36 37  1  0
 16  7  1  0
 26 17  2  0
 34 29  1  0
 25 20  1  0
 37 32  1  0
M  END
>  <SLURM_JOB_ID>  (19) 
350558

>  <original SMILES>  (19) 
CC[S@](=O)(=NCc1cc(OC)c(OC)cc1-c1ccc2nnc(N)n2c1)NCc1ccc2c(c1)OCO2

>  <tags>  (19) 
Fragmenstein placed

>  <inchikey>  (19) 
PAACYIUKIWTKAR-DIPNUNPCSA-N

>  <scratch_subdir>  (19) 
/opt/xchem-fragalysis-2/maxwin/BulkDock/SCRATCH/350558/C485-P13

>  <name>  (19) 
PAACYIUKIWTKAR-DIPNUNPCSA-N

>  <energy_score>  (19) 
-73.701301

>  <fragmenstein_error>  (19) 
None

>  <csv_name>  (19) 
D68EV3C_iter1_fstein_split1000_batch000.csv

>  <fragmenstein_mode>  (19) 
expansion

>  <HIPPO Compound ID>  (19) 
485

>  <HIPPO Pose ID>  (19) 
345

>  <ref_mols>  (19) 
7gp9-a,B0450a

>  <fragmenstein_runtime>  (19) 
4.194049

>  <fragmenstein_outcome>  (19) 
acceptable

>  <distance_score>  (19) 
0.546148

>  <score_inspiration>  (19) 
0.827909

>  <original ID>  (19) 
PAACYIUKIWTKAR-DIPNUNPCSA-N

>  <ref_pdb>  (19) 
7gp9-a

>  <alias>  (19) 
None

$$$$
348
     RDKit          3D

 29 32  0  0  0  0  0  0  0  0999 V2000
   -0.3388   -2.0757   32.5670 O   0  0  0  0  0  0  0  0  0  0  0  0
   -0.6316   -2.5528   31.2374 S   0  0  0  0  0  0  0  0  0  0  0  0
   -1.5948   -3.5970   31.0087 O   0  0  0  0  0  0  0  0  0  0  0  0
    0.8383   -3.0491   30.5631 N   0  0  0  0  0  0  0  0  0  0  0  0
    1.3655   -4.3050   31.1083 C   0  0  0  0  0  0  0  0  0  0  0  0
    0.7385   -5.5702   30.5046 C   0  0  0  0  0  0  0  0  0  0  0  0
    0.1904   -6.5079   31.4671 N   0  0  0  0  0  0  0  0  0  0  0  0
   -0.9149   -7.2401   31.1809 N   0  0  0  0  0  0  0  0  0  0  0  0
   -1.4278   -7.6673   32.3384 N   0  0  0  0  0  0  0  0  0  0  0  0
   -0.5768   -7.2799   33.3276 C   0  0  0  0  0  0  0  0  0  0  0  0
    0.5366   -6.7012   32.7659 C   0  0  0  0  0  0  0  0  0  0  0  0
    1.5877   -6.1074   33.6109 C   0  0  0  0  0  0  0  0  0  0  0  0
    0.7943   -5.2613   34.6190 C   0  0  0  0  0  0  0  0  0  0  0  0
   -0.0509   -6.1621   35.4635 N   0  0  0  0  0  0  0  0  0  0  0  0
    0.6070   -6.4437   36.9731 S   0  0  0  0  0  0  0  0  0  0  0  0
    2.0343   -6.5916   36.8039 O   0  0  0  0  0  0  0  0  0  0  0  0
   -0.1900   -7.4146   37.6682 O   0  0  0  0  0  0  0  0  0  0  0  0
    0.2787   -4.9269   37.6154 N   0  0  0  0  0  0  0  0  0  0  0  0
    1.1169   -4.5193   38.7752 C   0  0  0  0  0  0  0  0  0  0  0  0
    0.5128   -3.2891   39.4965 C   0  0  0  0  0  0  0  0  0  0  0  0
   -0.2389   -2.3913   38.5973 N   0  0  0  0  0  0  0  0  0  0  0  0
   -1.3800   -3.1289   38.0119 C   0  0  0  0  0  0  0  0  0  0  0  0
   -1.1643   -4.6459   37.8527 C   0  0  0  0  0  0  0  0  0  0  0  0
   -0.7969   -7.3001   34.8052 C   0  0  0  0  0  0  0  0  0  0  0  0
   -0.8857   -1.2682   30.2217 N   0  0  0  0  0  0  0  0  0  0  0  0
   -0.8416   -1.4734   28.7501 C   0  0  0  0  0  0  0  0  0  0  0  0
   -0.7302   -0.0559   28.2148 C   0  0  0  0  0  0  0  0  0  0  0  0
    0.2094    0.5930   29.2076 C   0  0  0  0  0  0  0  0  0  0  0  0
   -0.2345    0.0187   30.5431 C   0  0  0  0  0  0  0  0  0  0  0  0
  1  2  2  0
  2  3  2  0
  2  4  1  0
  4  5  1  0
  5  6  1  0
  6  7  1  0
  7  8  1  0
  8  9  2  0
  9 10  1  0
 10 11  2  0
 11 12  1  0
 12 13  1  0
 13 14  1  0
 14 15  1  0
 15 16  2  0
 15 17  2  0
 15 18  1  0
 18 19  1  0
 19 20  1  0
 20 21  1  0
 21 22  1  0
 22 23  1  0
 14 24  1  0
  2 25  1  0
 25 26  1  0
 26 27  1  0
 27 28  1  0
 28 29  1  0
 11  7  1  0
 23 18  1  0
 29 25  1  0
 24 10  1  0
M  END
>  <SLURM_JOB_ID>  (20) 
350559

>  <original SMILES>  (20) 
O=S(=O)(NCCn1nnc2c1CCN(S(=O)(=O)N1CCNCC1)C2)N1CCCC1

>  <tags>  (20) 
Fragmenstein placed

>  <inchikey>  (20) 
OARQFRHWVMOKPX-UHFFFAOYSA-N

>  <scratch_subdir>  (20) 
/opt/xchem-fragalysis-2/maxwin/BulkDock/SCRATCH/350559/C172-P168

>  <name>  (20) 
OARQFRHWVMOKPX-UHFFFAOYSA-N

>  <energy_score>  (20) 
-93.007927

>  <fragmenstein_error>  (20) 
None

>  <csv_name>  (20) 
D68EV3C_iter1_fstein_split1000_batch001.csv

>  <fragmenstein_mode>  (20) 
expansion

>  <HIPPO Compound ID>  (20) 
172

>  <HIPPO Pose ID>  (20) 
348

>  <ref_mols>  (20) 
B1020a,B1368a

>  <fragmenstein_runtime>  (20) 
8.733927

>  <fragmenstein_outcome>  (20) 
acceptable

>  <distance_score>  (20) 
0.694756

>  <score_inspiration>  (20) 
0.77161

>  <original ID>  (20) 
OARQFRHWVMOKPX-UHFFFAOYSA-N

>  <ref_pdb>  (20) 
B1020a

>  <alias>  (20) 
None

$$$$
352
     RDKit          3D

 37 41  0  0  0  0  0  0  0  0999 V2000
   -2.1189   -0.4334   31.8762 C   0  0  0  0  0  0  0  0  0  0  0  0
   -0.6455   -0.7674   31.9235 C   0  0  0  0  0  0  0  0  0  0  0  0
   -0.2869   -2.4029   31.3414 S   0  0  2  0  0  0  0  0  0  0  0  0
   -0.9788   -3.3486   32.1822 O   0  0  0  0  0  0  0  0  0  0  0  0
    1.1594   -2.5396   30.8935 N   0  0  0  0  0  0  0  0  0  0  0  0
    2.2798   -1.9873   31.5870 C   0  0  0  0  0  0  0  0  0  0  0  0
    2.8290   -2.7444   32.7675 C   0  0  0  0  0  0  0  0  0  0  0  0
    3.8237   -1.9883   33.4367 C   0  0  0  0  0  0  0  0  0  0  0  0
    4.5337   -2.4931   34.5116 C   0  0  0  0  0  0  0  0  0  0  0  0
    5.5189   -1.7869   35.1395 O   0  0  0  0  0  0  0  0  0  0  0  0
    6.3767   -1.0577   34.2629 C   0  0  0  0  0  0  0  0  0  0  0  0
    4.2072   -3.7574   34.9825 C   0  0  0  0  0  0  0  0  0  0  0  0
    4.8179   -4.2659   36.0960 O   0  0  0  0  0  0  0  0  0  0  0  0
    5.9452   -5.0521   35.7196 C   0  0  0  0  0  0  0  0  0  0  0  0
    3.2272   -4.5270   34.3538 C   0  0  0  0  0  0  0  0  0  0  0  0
    2.5408   -4.0568   33.2184 C   0  0  0  0  0  0  0  0  0  0  0  0
    1.6316   -5.0346   32.5608 C   0  0  0  0  0  0  0  0  0  0  0  0
    1.7540   -5.3812   31.1424 C   0  0  0  0  0  0  0  0  0  0  0  0
    0.9007   -6.2130   30.5236 C   0  0  0  0  0  0  0  0  0  0  0  0
   -0.1057   -6.8719   31.2656 C   0  0  0  0  0  0  0  0  0  0  0  0
   -1.0080   -7.7695   30.9370 N   0  0  0  0  0  0  0  0  0  0  0  0
   -1.6360   -8.1584   32.0947 N   0  0  0  0  0  0  0  0  0  0  0  0
   -1.1253   -7.4810   33.1026 C   0  0  0  0  0  0  0  0  0  0  0  0
   -1.4012   -7.6667   34.4173 N   0  0  0  0  0  0  0  0  0  0  0  0
   -0.1659   -6.6032   32.6249 N   0  0  0  0  0  0  0  0  0  0  0  0
    0.6725   -5.6837   33.2663 C   0  0  0  0  0  0  0  0  0  0  0  0
   -1.0555   -2.6304   29.8758 N   0  0  0  0  0  0  0  0  0  0  0  0
   -0.3905   -2.3011   28.6278 C   0  0  0  0  0  0  0  0  0  0  0  0
   -0.4083   -0.8319   28.3011 C   0  0  0  0  0  0  0  0  0  0  0  0
    0.6600    0.0418   28.5808 C   0  0  0  0  0  0  0  0  0  0  0  0
    0.5868    1.3975   28.2295 C   0  0  0  0  0  0  0  0  0  0  0  0
   -0.5539    1.8417   27.5934 C   0  0  0  0  0  0  0  0  0  0  0  0
   -1.5860    0.9920   27.3009 C   0  0  0  0  0  0  0  0  0  0  0  0
   -1.5357   -0.3365   27.6448 C   0  0  0  0  0  0  0  0  0  0  0  0
   -2.5982    1.6030   26.6332 O   0  0  0  0  0  0  0  0  0  0  0  0
   -2.1275    2.9617   26.6131 C   0  0  0  0  0  0  0  0  0  0  0  0
   -0.7942    3.1062   27.1561 O   0  0  0  0  0  0  0  0  0  0  0  0
  1  2  1  0
  3  2  1  1
  3  4  2  0
  3  5  2  0
  5  6  1  0
  6  7  1  0
  7  8  2  0
  8  9  1  0
  9 10  1  0
 10 11  1  0
  9 12  2  0
 12 13  1  0
 13 14  1  0
 12 15  1  0
 15 16  2  0
 16 17  1  0
 17 18  1  0
 18 19  2  0
 19 20  1  0
 20 21  2  0
 21 22  1  0
 22 23  2  0
 23 24  1  0
 23 25  1  0
 25 26  1  0
  3 27  1  0
 27 28  1  0
 28 29  1  0
 29 30  2  0
 30 31  1  0
 31 32  2  0
 32 33  1  0
 33 34  2  0
 33 35  1  0
 35 36  1  0
 36 37  1  0
 16  7  1  0
 26 17  2  0
 34 29  1  0
 25 20  1  0
 37 32  1  0
M  END
>  <SLURM_JOB_ID>  (21) 
350558

>  <original SMILES>  (21) 
CC[S@](=O)(=NCc1cc(OC)c(OC)cc1-c1ccc2nnc(N)n2c1)NCc1ccc2c(c1)OCO2

>  <tags>  (21) 
Fragmenstein placed

>  <inchikey>  (21) 
PAACYIUKIWTKAR-DIPNUNPCSA-N

>  <scratch_subdir>  (21) 
/opt/xchem-fragalysis-2/maxwin/BulkDock/SCRATCH/350558/C485-P132

>  <name>  (21) 
PAACYIUKIWTKAR-DIPNUNPCSA-N

>  <energy_score>  (21) 
-72.082229

>  <fragmenstein_error>  (21) 
None

>  <csv_name>  (21) 
D68EV3C_iter1_fstein_split1000_batch000.csv

>  <fragmenstein_mode>  (21) 
expansion

>  <HIPPO Compound ID>  (21) 
485

>  <HIPPO Pose ID>  (21) 
352

>  <ref_mols>  (21) 
7gp9-a,B0450a

>  <fragmenstein_runtime>  (21) 
4.411958

>  <fragmenstein_outcome>  (21) 
acceptable

>  <distance_score>  (21) 
0.605712

>  <score_inspiration>  (21) 
0.796611

>  <original ID>  (21) 
PAACYIUKIWTKAR-DIPNUNPCSA-N

>  <ref_pdb>  (21) 
B0450a

>  <alias>  (21) 
None

$$$$
360
     RDKit          3D

 29 32  0  0  0  0  0  0  0  0999 V2000
   -0.4573   -2.0536   32.5983 O   0  0  0  0  0  0  0  0  0  0  0  0
   -0.8141   -2.5377   31.2869 S   0  0  0  0  0  0  0  0  0  0  0  0
   -1.7513   -3.6164   31.1097 O   0  0  0  0  0  0  0  0  0  0  0  0
    0.6319   -2.9764   30.5252 N   0  0  0  0  0  0  0  0  0  0  0  0
    1.2491   -4.2065   31.0482 C   0  0  0  0  0  0  0  0  0  0  0  0
    0.6817   -5.5050   30.4541 C   0  0  0  0  0  0  0  0  0  0  0  0
    0.2033   -6.4787   31.4189 N   0  0  0  0  0  0  0  0  0  0  0  0
   -0.8695   -7.2653   31.1514 N   0  0  0  0  0  0  0  0  0  0  0  0
   -1.3227   -7.7393   32.3159 N   0  0  0  0  0  0  0  0  0  0  0  0
   -0.4634   -7.3235   33.2873 C   0  0  0  0  0  0  0  0  0  0  0  0
    0.6013   -6.6796   32.7020 C   0  0  0  0  0  0  0  0  0  0  0  0
    1.6427   -6.0382   33.5226 C   0  0  0  0  0  0  0  0  0  0  0  0
    0.8348   -5.2438   34.5600 C   0  0  0  0  0  0  0  0  0  0  0  0
    0.0589   -6.1924   35.4190 N   0  0  0  0  0  0  0  0  0  0  0  0
    0.7559   -6.4315   36.9171 S   0  0  0  0  0  0  0  0  0  0  0  0
    2.1837   -6.5340   36.7194 O   0  0  0  0  0  0  0  0  0  0  0  0
    0.0152   -7.4237   37.6427 O   0  0  0  0  0  0  0  0  0  0  0  0
    0.3970   -4.9180   37.5576 N   0  0  0  0  0  0  0  0  0  0  0  0
    1.2187   -4.5081   38.7297 C   0  0  0  0  0  0  0  0  0  0  0  0
    0.5880   -3.2991   39.4638 C   0  0  0  0  0  0  0  0  0  0  0  0
   -0.1749   -2.4045   38.5719 N   0  0  0  0  0  0  0  0  0  0  0  0
   -1.3036   -3.1574   37.9808 C   0  0  0  0  0  0  0  0  0  0  0  0
   -1.0533   -4.6662   37.7924 C   0  0  0  0  0  0  0  0  0  0  0  0
   -0.6465   -7.3642   34.7716 C   0  0  0  0  0  0  0  0  0  0  0  0
   -1.1989   -1.2537   30.3021 N   0  0  0  0  0  0  0  0  0  0  0  0
   -1.3011   -1.4836   28.8333 C   0  0  0  0  0  0  0  0  0  0  0  0
   -1.0667   -0.1027   28.2393 C   0  0  0  0  0  0  0  0  0  0  0  0
   -0.0318    0.4877   29.1703 C   0  0  0  0  0  0  0  0  0  0  0  0
   -0.5206    0.0418   30.5372 C   0  0  0  0  0  0  0  0  0  0  0  0
  1  2  2  0
  2  3  2  0
  2  4  1  0
  4  5  1  0
  5  6  1  0
  6  7  1  0
  7  8  1  0
  8  9  2  0
  9 10  1  0
 10 11  2  0
 11 12  1  0
 12 13  1  0
 13 14  1  0
 14 15  1  0
 15 16  2  0
 15 17  2  0
 15 18  1  0
 18 19  1  0
 19 20  1  0
 20 21  1  0
 21 22  1  0
 22 23  1  0
 14 24  1  0
  2 25  1  0
 25 26  1  0
 26 27  1  0
 27 28  1  0
 28 29  1  0
 11  7  1  0
 23 18  1  0
 29 25  1  0
 24 10  1  0
M  END
>  <SLURM_JOB_ID>  (22) 
350559

>  <original SMILES>  (22) 
O=S(=O)(NCCn1nnc2c1CCN(S(=O)(=O)N1CCNCC1)C2)N1CCCC1

>  <tags>  (22) 
Fragmenstein placed

>  <inchikey>  (22) 
OARQFRHWVMOKPX-UHFFFAOYSA-N

>  <scratch_subdir>  (22) 
/opt/xchem-fragalysis-2/maxwin/BulkDock/SCRATCH/350559/C172-P190

>  <name>  (22) 
OARQFRHWVMOKPX-UHFFFAOYSA-N

>  <energy_score>  (22) 
-94.448898

>  <fragmenstein_error>  (22) 
None

>  <csv_name>  (22) 
D68EV3C_iter1_fstein_split1000_batch001.csv

>  <fragmenstein_mode>  (22) 
expansion

>  <HIPPO Compound ID>  (22) 
172

>  <HIPPO Pose ID>  (22) 
360

>  <ref_mols>  (22) 
B1020a,B1368a

>  <fragmenstein_runtime>  (22) 
9.958295

>  <fragmenstein_outcome>  (22) 
acceptable

>  <distance_score>  (22) 
0.656454

>  <score_inspiration>  (22) 
0.79249

>  <original ID>  (22) 
OARQFRHWVMOKPX-UHFFFAOYSA-N

>  <ref_pdb>  (22) 
B1368a

>  <alias>  (22) 
None

$$$$
362
     RDKit          3D

 36 40  0  0  0  0  0  0  0  0999 V2000
   -0.7534    0.3150   31.3579 C   0  0  0  0  0  0  0  0  0  0  0  0
   -1.5422   -0.9022   31.7749 C   0  0  0  0  0  0  0  0  0  0  0  0
   -0.8271   -2.4530   31.3304 S   0  0  2  0  0  0  0  0  0  0  0  0
   -1.6859   -3.4692   31.9039 O   0  0  0  0  0  0  0  0  0  0  0  0
    0.6917   -2.3301   31.4761 N   0  0  0  0  0  0  0  0  0  0  0  0
    1.4048   -2.4631   32.7371 C   0  0  0  0  0  0  0  0  0  0  0  0
    1.9618   -1.3087   33.2887 C   0  0  0  0  0  0  0  0  0  0  0  0
    2.7101   -1.3928   34.4641 C   0  0  0  0  0  0  0  0  0  0  0  0
    3.3451   -0.1893   35.0752 C   0  0  0  0  0  0  0  0  0  0  0  0
    4.4472   -0.2788   35.4402 O   0  0  0  0  0  0  0  0  0  0  0  0
    2.3860    1.0143   35.0841 N   0  0  0  0  0  0  0  0  0  0  0  0
    2.5485    2.3310   35.6285 C   0  0  0  0  0  0  0  0  0  0  0  0
    2.9392   -2.6385   35.0561 C   0  0  0  0  0  0  0  0  0  0  0  0
    2.4014   -3.7970   34.4920 C   0  0  0  0  0  0  0  0  0  0  0  0
    1.6317   -3.7197   33.3254 C   0  0  0  0  0  0  0  0  0  0  0  0
    1.1023   -4.9429   32.7028 C   0  0  0  0  0  0  0  0  0  0  0  0
    1.4518   -5.3519   31.3412 C   0  0  0  0  0  0  0  0  0  0  0  0
    0.8067   -6.3462   30.7099 C   0  0  0  0  0  0  0  0  0  0  0  0
   -0.2196   -7.0538   31.3779 C   0  0  0  0  0  0  0  0  0  0  0  0
   -1.0236   -8.0279   31.0139 N   0  0  0  0  0  0  0  0  0  0  0  0
   -1.7571   -8.3842   32.1211 N   0  0  0  0  0  0  0  0  0  0  0  0
   -1.3885   -7.6260   33.1332 C   0  0  0  0  0  0  0  0  0  0  0  0
   -1.7586   -7.7396   34.4370 N   0  0  0  0  0  0  0  0  0  0  0  0
   -0.4628   -6.7090   32.6966 N   0  0  0  0  0  0  0  0  0  0  0  0
    0.1666   -5.6587   33.3565 C   0  0  0  0  0  0  0  0  0  0  0  0
   -1.0178   -2.7476   29.7074 N   0  0  0  0  0  0  0  0  0  0  0  0
   -0.1253   -2.3360   28.6541 C   0  0  0  0  0  0  0  0  0  0  0  0
   -0.3488   -0.9179   28.1968 C   0  0  0  0  0  0  0  0  0  0  0  0
    0.6844    0.0425   28.3001 C   0  0  0  0  0  0  0  0  0  0  0  0
    0.4878    1.3602   27.8723 C   0  0  0  0  0  0  0  0  0  0  0  0
   -0.7403    1.6841   27.3376 C   0  0  0  0  0  0  0  0  0  0  0  0
   -1.7438    0.7553   27.2166 C   0  0  0  0  0  0  0  0  0  0  0  0
   -1.5809   -0.5474   27.6326 C   0  0  0  0  0  0  0  0  0  0  0  0
   -2.8599    1.2710   26.6393 O   0  0  0  0  0  0  0  0  0  0  0  0
   -2.4728    2.6469   26.4672 C   0  0  0  0  0  0  0  0  0  0  0  0
   -1.1036    2.9030   26.8573 O   0  0  0  0  0  0  0  0  0  0  0  0
  1  2  1  0
  3  2  1  6
  3  4  2  0
  3  5  2  0
  5  6  1  0
  6  7  2  0
  7  8  1  0
  8  9  1  0
  9 10  2  0
  9 11  1  0
 11 12  1  0
  8 13  2  0
 13 14  1  0
 14 15  2  0
 15 16  1  0
 16 17  1  0
 17 18  2  0
 18 19  1  0
 19 20  2  0
 20 21  1  0
 21 22  2  0
 22 23  1  0
 22 24  1  0
 24 25  1  0
  3 26  1  0
 26 27  1  0
 27 28  1  0
 28 29  2  0
 29 30  1  0
 30 31  2  0
 31 32  1  0
 32 33  2  0
 32 34  1  0
 34 35  1  0
 35 36  1  0
 15  6  1  0
 25 16  2  0
 33 28  1  0
 24 19  1  0
 36 31  1  0
M  END
>  <SLURM_JOB_ID>  (23) 
350558

>  <original SMILES>  (23) 
CC[S@](=O)(=Nc1cc(C(=O)NC)ccc1-c1ccc2nnc(N)n2c1)NCc1ccc2c(c1)OCO2

>  <tags>  (23) 
Fragmenstein placed

>  <inchikey>  (23) 
PBDFDUJLYHDLGR-PSXMRANNSA-N

>  <scratch_subdir>  (23) 
/opt/xchem-fragalysis-2/maxwin/BulkDock/SCRATCH/350558/C487-P13

>  <name>  (23) 
PBDFDUJLYHDLGR-PSXMRANNSA-N

>  <energy_score>  (23) 
-78.102934

>  <fragmenstein_error>  (23) 
None

>  <csv_name>  (23) 
D68EV3C_iter1_fstein_split1000_batch000.csv

>  <fragmenstein_mode>  (23) 
expansion

>  <HIPPO Compound ID>  (23) 
487

>  <HIPPO Pose ID>  (23) 
362

>  <ref_mols>  (23) 
7gp9-a,B0455a

>  <fragmenstein_runtime>  (23) 
6.876564

>  <fragmenstein_outcome>  (23) 
acceptable

>  <distance_score>  (23) 
0.784488

>  <score_inspiration>  (23) 
0.789264

>  <original ID>  (23) 
PBDFDUJLYHDLGR-PSXMRANNSA-N

>  <ref_pdb>  (23) 
7gp9-a

>  <alias>  (23) 
None

$$$$
368
     RDKit          3D

 36 40  0  0  0  0  0  0  0  0999 V2000
   -2.0385   -0.4740   33.0472 C   0  0  0  0  0  0  0  0  0  0  0  0
   -1.7198   -0.7418   31.5873 C   0  0  0  0  0  0  0  0  0  0  0  0
   -0.9114   -2.3088   31.3813 S   0  0  2  0  0  0  0  0  0  0  0  0
   -1.7732   -3.3245   31.9471 O   0  0  0  0  0  0  0  0  0  0  0  0
    0.5778   -2.0724   31.6194 N   0  0  0  0  0  0  0  0  0  0  0  0
    1.2934   -2.3257   32.8517 C   0  0  0  0  0  0  0  0  0  0  0  0
    1.8500   -1.2063   33.4735 C   0  0  0  0  0  0  0  0  0  0  0  0
    2.6383   -1.3652   34.6130 C   0  0  0  0  0  0  0  0  0  0  0  0
    3.2672   -0.1995   35.2997 C   0  0  0  0  0  0  0  0  0  0  0  0
    4.3753   -0.2987   35.6436 O   0  0  0  0  0  0  0  0  0  0  0  0
    2.2795    0.9722   35.4420 N   0  0  0  0  0  0  0  0  0  0  0  0
    2.4748    2.2987   35.9512 C   0  0  0  0  0  0  0  0  0  0  0  0
    2.9107   -2.6490   35.0940 C   0  0  0  0  0  0  0  0  0  0  0  0
    2.3697   -3.7702   34.4600 C   0  0  0  0  0  0  0  0  0  0  0  0
    1.5533   -3.6225   33.3303 C   0  0  0  0  0  0  0  0  0  0  0  0
    1.0156   -4.8200   32.6591 C   0  0  0  0  0  0  0  0  0  0  0  0
    1.2874   -5.1441   31.2559 C   0  0  0  0  0  0  0  0  0  0  0  0
    0.6561   -6.1457   30.6194 C   0  0  0  0  0  0  0  0  0  0  0  0
   -0.2654   -6.9548   31.3268 C   0  0  0  0  0  0  0  0  0  0  0  0
   -1.0123   -7.9771   30.9747 N   0  0  0  0  0  0  0  0  0  0  0  0
   -1.6539   -8.4203   32.1078 N   0  0  0  0  0  0  0  0  0  0  0  0
   -1.2948   -7.6643   33.1250 C   0  0  0  0  0  0  0  0  0  0  0  0
   -1.6188   -7.8205   34.4346 N   0  0  0  0  0  0  0  0  0  0  0  0
   -0.4506   -6.6753   32.6712 N   0  0  0  0  0  0  0  0  0  0  0  0
    0.1589   -5.6141   33.3333 C   0  0  0  0  0  0  0  0  0  0  0  0
   -0.9239   -2.7259   29.7619 N   0  0  0  0  0  0  0  0  0  0  0  0
    0.0162   -2.1970   28.8011 C   0  0  0  0  0  0  0  0  0  0  0  0
   -0.2524   -0.7662   28.4151 C   0  0  0  0  0  0  0  0  0  0  0  0
    0.6881    0.2471   28.7026 C   0  0  0  0  0  0  0  0  0  0  0  0
    0.4714    1.5673   28.2920 C   0  0  0  0  0  0  0  0  0  0  0  0
   -0.6850    1.8437   27.5965 C   0  0  0  0  0  0  0  0  0  0  0  0
   -1.6049    0.8673   27.3155 C   0  0  0  0  0  0  0  0  0  0  0  0
   -1.4248   -0.4366   27.7212 C   0  0  0  0  0  0  0  0  0  0  0  0
   -2.6517    1.3356   26.5869 O   0  0  0  0  0  0  0  0  0  0  0  0
   -2.3292    2.7356   26.5087 C   0  0  0  0  0  0  0  0  0  0  0  0
   -1.0472    3.0540   27.0952 O   0  0  0  0  0  0  0  0  0  0  0  0
  1  2  1  0
  3  2  1  6
  3  4  2  0
  3  5  2  0
  5  6  1  0
  6  7  2  0
  7  8  1  0
  8  9  1  0
  9 10  2  0
  9 11  1  0
 11 12  1  0
  8 13  2  0
 13 14  1  0
 14 15  2  0
 15 16  1  0
 16 17  1  0
 17 18  2  0
 18 19  1  0
 19 20  2  0
 20 21  1  0
 21 22  2  0
 22 23  1  0
 22 24  1  0
 24 25  1  0
  3 26  1  0
 26 27  1  0
 27 28  1  0
 28 29  2  0
 29 30  1  0
 30 31  2  0
 31 32  1  0
 32 33  2  0
 32 34  1  0
 34 35  1  0
 35 36  1  0
 15  6  1  0
 25 16  2  0
 33 28  1  0
 24 19  1  0
 36 31  1  0
M  END
>  <SLURM_JOB_ID>  (24) 
350558

>  <original SMILES>  (24) 
CC[S@](=O)(=Nc1cc(C(=O)NC)ccc1-c1ccc2nnc(N)n2c1)NCc1ccc2c(c1)OCO2

>  <tags>  (24) 
Fragmenstein placed

>  <inchikey>  (24) 
PBDFDUJLYHDLGR-PSXMRANNSA-N

>  <scratch_subdir>  (24) 
/opt/xchem-fragalysis-2/maxwin/BulkDock/SCRATCH/350558/C487-P136

>  <name>  (24) 
PBDFDUJLYHDLGR-PSXMRANNSA-N

>  <energy_score>  (24) 
-85.670878

>  <fragmenstein_error>  (24) 
None

>  <csv_name>  (24) 
D68EV3C_iter1_fstein_split1000_batch000.csv

>  <fragmenstein_mode>  (24) 
expansion

>  <HIPPO Compound ID>  (24) 
487

>  <HIPPO Pose ID>  (24) 
368

>  <ref_mols>  (24) 
7gp9-a,B0455a

>  <fragmenstein_runtime>  (24) 
4.483043

>  <fragmenstein_outcome>  (24) 
acceptable

>  <distance_score>  (24) 
0.860355

>  <score_inspiration>  (24) 
0.757653

>  <original ID>  (24) 
PBDFDUJLYHDLGR-PSXMRANNSA-N

>  <ref_pdb>  (24) 
B0455a

>  <alias>  (24) 
None

$$$$
371
     RDKit          3D

 29 32  0  0  0  0  0  0  0  0999 V2000
   -0.8151   -1.5643   32.7049 O   0  0  0  0  0  0  0  0  0  0  0  0
   -1.0624   -2.2501   31.4581 S   0  0  0  0  0  0  0  0  0  0  0  0
   -2.3044   -2.9403   31.1957 O   0  0  0  0  0  0  0  0  0  0  0  0
    0.2129   -3.3550   31.2443 N   0  0  0  0  0  0  0  0  0  0  0  0
    0.1726   -4.2002   30.0275 C   0  0  0  0  0  0  0  0  0  0  0  0
    0.8129   -5.5745   30.2377 C   0  0  0  0  0  0  0  0  0  0  0  0
    0.1567   -6.3859   31.2363 N   0  0  0  0  0  0  0  0  0  0  0  0
   -0.8078   -7.2845   30.9340 N   0  0  0  0  0  0  0  0  0  0  0  0
   -1.2993   -7.7524   32.0871 N   0  0  0  0  0  0  0  0  0  0  0  0
   -0.6020   -7.1647   33.1048 C   0  0  0  0  0  0  0  0  0  0  0  0
    0.3636   -6.3514   32.5709 C   0  0  0  0  0  0  0  0  0  0  0  0
    1.2102   -5.4608   33.3794 C   0  0  0  0  0  0  0  0  0  0  0  0
    0.2829   -4.9400   34.4861 C   0  0  0  0  0  0  0  0  0  0  0  0
   -0.2754   -6.0750   35.2954 N   0  0  0  0  0  0  0  0  0  0  0  0
    0.5609   -6.3959   36.7081 S   0  0  0  0  0  0  0  0  0  0  0  0
    1.9646   -6.4800   36.3767 O   0  0  0  0  0  0  0  0  0  0  0  0
   -0.1178   -7.4458   37.4198 O   0  0  0  0  0  0  0  0  0  0  0  0
    0.2548   -4.9488   37.4835 N   0  0  0  0  0  0  0  0  0  0  0  0
    1.2234   -4.5181   38.5214 C   0  0  0  0  0  0  0  0  0  0  0  0
    0.6113   -3.4838   39.4958 C   0  0  0  0  0  0  0  0  0  0  0  0
   -0.2772   -2.5090   38.8504 N   0  0  0  0  0  0  0  0  0  0  0  0
   -1.3566   -3.1819   38.1059 C   0  0  0  0  0  0  0  0  0  0  0  0
   -1.1534   -4.6888   37.8572 C   0  0  0  0  0  0  0  0  0  0  0  0
   -0.8616   -7.2563   34.5695 C   0  0  0  0  0  0  0  0  0  0  0  0
   -0.8680   -1.0388   30.2056 C   0  0  0  0  0  0  0  0  0  0  0  0
   -1.0509   -1.2967   28.8601 C   0  0  0  0  0  0  0  0  0  0  0  0
   -0.7124    0.1095   27.9448 S   0  0  0  0  0  0  0  0  0  0  0  0
   -0.2706    0.9216   29.3783 C   0  0  0  0  0  0  0  0  0  0  0  0
   -0.3733    0.2327   30.4940 N   0  0  0  0  0  0  0  0  0  0  0  0
  1  2  2  0
  2  3  2  0
  2  4  1  0
  4  5  1  0
  5  6  1  0
  6  7  1  0
  7  8  1  0
  8  9  2  0
  9 10  1  0
 10 11  2  0
 11 12  1  0
 12 13  1  0
 13 14  1  0
 14 15  1  0
 15 16  2  0
 15 17  2  0
 15 18  1  0
 18 19  1  0
 19 20  1  0
 20 21  1  0
 21 22  1  0
 22 23  1  0
 14 24  1  0
  2 25  1  0
 25 26  2  0
 26 27  1  0
 27 28  1  0
 28 29  2  0
 11  7  1  0
 23 18  1  0
 29 25  1  0
 24 10  1  0
M  END
>  <SLURM_JOB_ID>  (25) 
350559

>  <original SMILES>  (25) 
O=S(=O)(NCCn1nnc2c1CCN(S(=O)(=O)N1CCNCC1)C2)c1cscn1

>  <tags>  (25) 
Fragmenstein placed

>  <inchikey>  (25) 
VULGYVLYDAWQHL-UHFFFAOYSA-N

>  <scratch_subdir>  (25) 
/opt/xchem-fragalysis-2/maxwin/BulkDock/SCRATCH/350559/C174-P168

>  <name>  (25) 
VULGYVLYDAWQHL-UHFFFAOYSA-N

>  <energy_score>  (25) 
-101.612038

>  <fragmenstein_error>  (25) 
None

>  <csv_name>  (25) 
D68EV3C_iter1_fstein_split1000_batch001.csv

>  <fragmenstein_mode>  (25) 
expansion

>  <HIPPO Compound ID>  (25) 
174

>  <HIPPO Pose ID>  (25) 
371

>  <ref_mols>  (25) 
B1020a,B1457a

>  <fragmenstein_runtime>  (25) 
4.371919

>  <fragmenstein_outcome>  (25) 
acceptable

>  <distance_score>  (25) 
0.637519

>  <score_inspiration>  (25) 
0.796269

>  <original ID>  (25) 
VULGYVLYDAWQHL-UHFFFAOYSA-N

>  <ref_pdb>  (25) 
B1020a

>  <alias>  (25) 
None

$$$$
374
     RDKit          3D

 39 44  0  0  0  0  0  0  0  0999 V2000
   -1.0162   -2.0366   33.7203 C   0  0  0  0  0  0  0  0  0  0  0  0
   -0.7840   -1.3486   32.3972 C   0  0  0  0  0  0  0  0  0  0  0  0
   -0.0652   -2.4368   31.1909 S   0  0  2  0  0  0  0  0  0  0  0  0
   -1.0838   -3.3496   30.7289 O   0  0  0  0  0  0  0  0  0  0  0  0
    1.3784   -2.7829   31.5788 N   0  0  0  0  0  0  0  0  0  0  0  0
    1.9630   -4.0241   31.0463 C   0  0  0  0  0  0  0  0  0  0  0  0
    1.2122   -5.2002   31.6050 C   0  0  0  0  0  0  0  0  0  0  0  0
    1.0864   -5.2538   33.0611 C   0  0  0  0  0  0  0  0  0  0  0  0
    0.1871   -6.0841   33.6090 C   0  0  0  0  0  0  0  0  0  0  0  0
    0.0111   -6.0171   35.0206 N   0  0  0  0  0  0  0  0  0  0  0  0
    0.0167   -4.7486   35.7897 C   0  0  0  0  0  0  0  0  0  0  0  0
    0.1662   -5.1366   37.2552 C   0  0  0  0  0  0  0  0  0  0  0  0
    1.2540   -6.2109   37.2719 C   0  0  1  0  0  0  0  0  0  0  0  0
    1.4294   -7.0289   38.5230 C   0  0  0  0  0  0  0  0  0  0  0  0
    2.6377   -7.7193   38.7182 C   0  0  0  0  0  0  0  0  0  0  0  0
    2.8333   -8.5114   39.8498 C   0  0  0  0  0  0  0  0  0  0  0  0
    1.8251   -8.6283   40.8017 C   0  0  0  0  0  0  0  0  0  0  0  0
    0.6243   -7.9482   40.6267 C   0  0  0  0  0  0  0  0  0  0  0  0
    0.4293   -7.1499   39.4991 C   0  0  0  0  0  0  0  0  0  0  0  0
    0.7885   -7.2849   35.8963 S   0  0  0  0  0  0  0  0  0  0  0  0
    1.9621   -7.7075   35.1546 O   0  0  0  0  0  0  0  0  0  0  0  0
   -0.2616   -8.1948   36.2851 O   0  0  0  0  0  0  0  0  0  0  0  0
   -0.5223   -6.9492   32.7768 N   0  0  0  0  0  0  0  0  0  0  0  0
   -1.4901   -7.8689   33.0310 C   0  0  0  0  0  0  0  0  0  0  0  0
   -1.8820   -8.4424   31.9131 N   0  0  0  0  0  0  0  0  0  0  0  0
   -1.1723   -7.8851   30.8803 N   0  0  0  0  0  0  0  0  0  0  0  0
   -0.3653   -6.9876   31.4007 C   0  0  0  0  0  0  0  0  0  0  0  0
    0.5285   -6.0572   30.8195 C   0  0  0  0  0  0  0  0  0  0  0  0
    0.2894   -1.4502   29.9238 N   0  0  0  0  0  0  0  0  0  0  0  0
    0.0191   -1.7568   28.5469 C   0  0  0  0  0  0  0  0  0  0  0  0
   -0.2880   -0.4369   27.9009 C   0  0  0  0  0  0  0  0  0  0  0  0
    0.6905    0.5875   27.8597 C   0  0  0  0  0  0  0  0  0  0  0  0
    0.3689    1.8584   27.3909 C   0  0  0  0  0  0  0  0  0  0  0  0
   -0.9202    2.0630   26.9550 C   0  0  0  0  0  0  0  0  0  0  0  0
   -1.8676    1.0676   26.9720 C   0  0  0  0  0  0  0  0  0  0  0  0
   -1.5870   -0.1904   27.4415 C   0  0  0  0  0  0  0  0  0  0  0  0
   -3.0601    1.4776   26.4722 O   0  0  0  0  0  0  0  0  0  0  0  0
   -2.7882    2.8712   26.2389 C   0  0  0  0  0  0  0  0  0  0  0  0
   -1.4017    3.2243   26.4416 O   0  0  0  0  0  0  0  0  0  0  0  0
  1  2  1  0
  3  2  1  1
  3  4  2  0
  3  5  2  0
  5  6  1  0
  6  7  1  0
  7  8  1  0
  8  9  2  0
  9 10  1  0
 10 11  1  0
 11 12  1  0
 12 13  1  0
 13 14  1  1
 14 15  2  0
 15 16  1  0
 16 17  2  0
 17 18  1  0
 18 19  2  0
 13 20  1  0
 20 21  2  0
 20 22  2  0
  9 23  1  0
 23 24  1  0
 24 25  2  0
 25 26  1  0
 26 27  2  0
 27 28  1  0
  3 29  1  0
 29 30  1  0
 30 31  1  0
 31 32  2  0
 32 33  1  0
 33 34  2  0
 34 35  1  0
 35 36  2  0
 35 37  1  0
 37 38  1  0
 38 39  1  0
 28  7  2  0
 36 31  1  0
 20 10  1  0
 27 23  1  0
 39 34  1  0
 19 14  1  0
M  END
>  <SLURM_JOB_ID>  (26) 
350558

>  <original SMILES>  (26) 
CC[S@](=O)(=NCc1cc(N2CC[C@@H](c3ccccc3)S2(=O)=O)n2cnnc2c1)NCc1ccc2c(c1)OCO2

>  <tags>  (26) 
Fragmenstein placed

>  <inchikey>  (26) 
KFJNKWVMMXQGKO-FKEHTHLJSA-N

>  <scratch_subdir>  (26) 
/opt/xchem-fragalysis-2/maxwin/BulkDock/SCRATCH/350558/C488-P13

>  <name>  (26) 
KFJNKWVMMXQGKO-FKEHTHLJSA-N

>  <energy_score>  (26) 
-86.651558

>  <fragmenstein_error>  (26) 
None

>  <csv_name>  (26) 
D68EV3C_iter1_fstein_split1000_batch000.csv

>  <fragmenstein_mode>  (26) 
expansion

>  <HIPPO Compound ID>  (26) 
488

>  <HIPPO Pose ID>  (26) 
374

>  <ref_mols>  (26) 
7gp9-a,B0691a

>  <fragmenstein_runtime>  (26) 
4.155586

>  <fragmenstein_outcome>  (26) 
acceptable

>  <distance_score>  (26) 
0.697762

>  <score_inspiration>  (26) 
0.741502

>  <original ID>  (26) 
KFJNKWVMMXQGKO-FKEHTHLJSA-N

>  <ref_pdb>  (26) 
7gp9-a

>  <alias>  (26) 
None

$$$$
378
     RDKit          3D

 29 32  0  0  0  0  0  0  0  0999 V2000
   -0.9859   -1.5279   32.7921 O   0  0  0  0  0  0  0  0  0  0  0  0
   -1.2271   -2.3111   31.6031 S   0  0  0  0  0  0  0  0  0  0  0  0
   -2.4260   -3.0988   31.4218 O   0  0  0  0  0  0  0  0  0  0  0  0
    0.1239   -3.3208   31.3840 N   0  0  0  0  0  0  0  0  0  0  0  0
    0.1279   -4.1894   30.1766 C   0  0  0  0  0  0  0  0  0  0  0  0
    0.8709   -5.5042   30.4112 C   0  0  0  0  0  0  0  0  0  0  0  0
    0.2296   -6.3666   31.3769 N   0  0  0  0  0  0  0  0  0  0  0  0
   -0.6959   -7.2957   31.0480 N   0  0  0  0  0  0  0  0  0  0  0  0
   -1.1811   -7.8012   32.1899 N   0  0  0  0  0  0  0  0  0  0  0  0
   -0.5191   -7.2030   33.2282 C   0  0  0  0  0  0  0  0  0  0  0  0
    0.4128   -6.3392   32.7135 C   0  0  0  0  0  0  0  0  0  0  0  0
    1.1901   -5.3996   33.5315 C   0  0  0  0  0  0  0  0  0  0  0  0
    0.2035   -4.9291   34.6053 C   0  0  0  0  0  0  0  0  0  0  0  0
   -0.2902   -6.0877   35.4267 N   0  0  0  0  0  0  0  0  0  0  0  0
    0.5965   -6.3559   36.8232 S   0  0  0  0  0  0  0  0  0  0  0  0
    1.9948   -6.4249   36.4630 O   0  0  0  0  0  0  0  0  0  0  0  0
   -0.0327   -7.3738   37.6193 O   0  0  0  0  0  0  0  0  0  0  0  0
    0.2993   -4.8813   37.5598 N   0  0  0  0  0  0  0  0  0  0  0  0
    1.2718   -4.4303   38.5828 C   0  0  0  0  0  0  0  0  0  0  0  0
    0.6558   -3.3987   39.5572 C   0  0  0  0  0  0  0  0  0  0  0  0
   -0.2440   -2.4309   38.9167 N   0  0  0  0  0  0  0  0  0  0  0  0
   -1.3156   -3.1136   38.1682 C   0  0  0  0  0  0  0  0  0  0  0  0
   -1.1079   -4.6220   37.9390 C   0  0  0  0  0  0  0  0  0  0  0  0
   -0.7939   -7.3145   34.6948 C   0  0  0  0  0  0  0  0  0  0  0  0
   -1.1808   -1.1750   30.2755 C   0  0  0  0  0  0  0  0  0  0  0  0
   -1.5351   -1.5338   28.9927 C   0  0  0  0  0  0  0  0  0  0  0  0
   -1.1856   -0.2660   27.9155 S   0  0  0  0  0  0  0  0  0  0  0  0
   -0.5963    0.6728   29.2186 C   0  0  0  0  0  0  0  0  0  0  0  0
   -0.6183    0.0955   30.4013 N   0  0  0  0  0  0  0  0  0  0  0  0
  1  2  2  0
  2  3  2  0
  2  4  1  0
  4  5  1  0
  5  6  1  0
  6  7  1  0
  7  8  1  0
  8  9  2  0
  9 10  1  0
 10 11  2  0
 11 12  1  0
 12 13  1  0
 13 14  1  0
 14 15  1  0
 15 16  2  0
 15 17  2  0
 15 18  1  0
 18 19  1  0
 19 20  1  0
 20 21  1  0
 21 22  1  0
 22 23  1  0
 14 24  1  0
  2 25  1  0
 25 26  2  0
 26 27  1  0
 27 28  1  0
 28 29  2  0
 11  7  1  0
 23 18  1  0
 29 25  1  0
 24 10  1  0
M  END
>  <SLURM_JOB_ID>  (27) 
350559

>  <original SMILES>  (27) 
O=S(=O)(NCCn1nnc2c1CCN(S(=O)(=O)N1CCNCC1)C2)c1cscn1

>  <tags>  (27) 
Fragmenstein placed

>  <inchikey>  (27) 
VULGYVLYDAWQHL-UHFFFAOYSA-N

>  <scratch_subdir>  (27) 
/opt/xchem-fragalysis-2/maxwin/BulkDock/SCRATCH/350559/C174-P196

>  <name>  (27) 
VULGYVLYDAWQHL-UHFFFAOYSA-N

>  <energy_score>  (27) 
-101.901091

>  <fragmenstein_error>  (27) 
None

>  <csv_name>  (27) 
D68EV3C_iter1_fstein_split1000_batch001.csv

>  <fragmenstein_mode>  (27) 
expansion

>  <HIPPO Compound ID>  (27) 
174

>  <HIPPO Pose ID>  (27) 
378

>  <ref_mols>  (27) 
B1020a,B1457a

>  <fragmenstein_runtime>  (27) 
4.25243

>  <fragmenstein_outcome>  (27) 
acceptable

>  <distance_score>  (27) 
0.607155

>  <score_inspiration>  (27) 
0.840613

>  <original ID>  (27) 
VULGYVLYDAWQHL-UHFFFAOYSA-N

>  <ref_pdb>  (27) 
B1457a

>  <alias>  (27) 
None

$$$$
380
     RDKit          3D

 39 44  0  0  0  0  0  0  0  0999 V2000
   -1.0633   -2.0243   33.8222 C   0  0  0  0  0  0  0  0  0  0  0  0
   -0.9799   -1.2774   32.5163 C   0  0  0  0  0  0  0  0  0  0  0  0
   -0.3251   -2.2769   31.2024 S   0  0  2  0  0  0  0  0  0  0  0  0
   -1.3627   -3.1610   30.7264 O   0  0  0  0  0  0  0  0  0  0  0  0
    1.1369   -2.6391   31.4857 N   0  0  0  0  0  0  0  0  0  0  0  0
    1.6467   -3.8945   30.9197 C   0  0  0  0  0  0  0  0  0  0  0  0
    0.9111   -5.0531   31.5352 C   0  0  0  0  0  0  0  0  0  0  0  0
    0.8868   -5.1025   32.9967 C   0  0  0  0  0  0  0  0  0  0  0  0
    0.0771   -5.9731   33.6186 C   0  0  0  0  0  0  0  0  0  0  0  0
    0.0353   -5.8963   35.0368 N   0  0  0  0  0  0  0  0  0  0  0  0
    0.1115   -4.6467   35.8261 C   0  0  0  0  0  0  0  0  0  0  0  0
    0.2955   -5.0646   37.2809 C   0  0  0  0  0  0  0  0  0  0  0  0
    1.3142   -6.2041   37.2407 C   0  0  1  0  0  0  0  0  0  0  0  0
    1.4905   -7.0366   38.4809 C   0  0  0  0  0  0  0  0  0  0  0  0
    2.7216   -7.6746   38.7054 C   0  0  0  0  0  0  0  0  0  0  0  0
    2.9250   -8.4552   39.8444 C   0  0  0  0  0  0  0  0  0  0  0  0
    1.8999   -8.6164   40.7717 C   0  0  0  0  0  0  0  0  0  0  0  0
    0.6720   -7.9981   40.5608 C   0  0  0  0  0  0  0  0  0  0  0  0
    0.4700   -7.2112   39.4267 C   0  0  0  0  0  0  0  0  0  0  0  0
    0.7328   -7.2212   35.8709 S   0  0  0  0  0  0  0  0  0  0  0  0
    1.8390   -7.7156   35.0700 O   0  0  0  0  0  0  0  0  0  0  0  0
   -0.3857   -8.0408   36.2570 O   0  0  0  0  0  0  0  0  0  0  0  0
   -0.6500   -6.8848   32.8473 N   0  0  0  0  0  0  0  0  0  0  0  0
   -1.5187   -7.8891   33.1628 C   0  0  0  0  0  0  0  0  0  0  0  0
   -1.9449   -8.4776   32.0651 N   0  0  0  0  0  0  0  0  0  0  0  0
   -1.3674   -7.8559   30.9909 N   0  0  0  0  0  0  0  0  0  0  0  0
   -0.6018   -6.9004   31.4594 C   0  0  0  0  0  0  0  0  0  0  0  0
    0.1878   -5.9257   30.8050 C   0  0  0  0  0  0  0  0  0  0  0  0
   -0.0680   -1.1902   29.9902 N   0  0  0  0  0  0  0  0  0  0  0  0
    0.0542   -1.5697   28.6069 C   0  0  0  0  0  0  0  0  0  0  0  0
   -0.1068   -0.2866   27.8493 C   0  0  0  0  0  0  0  0  0  0  0  0
    0.8954    0.7102   27.8887 C   0  0  0  0  0  0  0  0  0  0  0  0
    0.6631    1.9678   27.3350 C   0  0  0  0  0  0  0  0  0  0  0  0
   -0.5578    2.1842   26.7358 C   0  0  0  0  0  0  0  0  0  0  0  0
   -1.5221    1.2112   26.6734 C   0  0  0  0  0  0  0  0  0  0  0  0
   -1.3311   -0.0269   27.2300 C   0  0  0  0  0  0  0  0  0  0  0  0
   -2.6264    1.6100   25.9931 O   0  0  0  0  0  0  0  0  0  0  0  0
   -2.2608    2.9593   25.6543 C   0  0  0  0  0  0  0  0  0  0  0  0
   -0.9422    3.3281   26.1145 O   0  0  0  0  0  0  0  0  0  0  0  0
  1  2  1  0
  3  2  1  1
  3  4  2  0
  3  5  2  0
  5  6  1  0
  6  7  1  0
  7  8  1  0
  8  9  2  0
  9 10  1  0
 10 11  1  0
 11 12  1  0
 12 13  1  0
 13 14  1  1
 14 15  2  0
 15 16  1  0
 16 17  2  0
 17 18  1  0
 18 19  2  0
 13 20  1  0
 20 21  2  0
 20 22  2  0
  9 23  1  0
 23 24  1  0
 24 25  2  0
 25 26  1  0
 26 27  2  0
 27 28  1  0
  3 29  1  0
 29 30  1  0
 30 31  1  0
 31 32  2  0
 32 33  1  0
 33 34  2  0
 34 35  1  0
 35 36  2  0
 35 37  1  0
 37 38  1  0
 38 39  1  0
 28  7  2  0
 36 31  1  0
 20 10  1  0
 27 23  1  0
 39 34  1  0
 19 14  1  0
M  END
>  <SLURM_JOB_ID>  (28) 
350558

>  <original SMILES>  (28) 
CC[S@](=O)(=NCc1cc(N2CC[C@@H](c3ccccc3)S2(=O)=O)n2cnnc2c1)NCc1ccc2c(c1)OCO2

>  <tags>  (28) 
Fragmenstein placed

>  <inchikey>  (28) 
KFJNKWVMMXQGKO-FKEHTHLJSA-N

>  <scratch_subdir>  (28) 
/opt/xchem-fragalysis-2/maxwin/BulkDock/SCRATCH/350558/C488-P144

>  <name>  (28) 
KFJNKWVMMXQGKO-FKEHTHLJSA-N

>  <energy_score>  (28) 
-88.047583

>  <fragmenstein_error>  (28) 
None

>  <csv_name>  (28) 
D68EV3C_iter1_fstein_split1000_batch000.csv

>  <fragmenstein_mode>  (28) 
expansion

>  <HIPPO Compound ID>  (28) 
488

>  <HIPPO Pose ID>  (28) 
380

>  <ref_mols>  (28) 
7gp9-a,B0691a

>  <fragmenstein_runtime>  (28) 
4.340658

>  <fragmenstein_outcome>  (28) 
acceptable

>  <distance_score>  (28) 
0.758397

>  <score_inspiration>  (28) 
0.717353

>  <original ID>  (28) 
KFJNKWVMMXQGKO-FKEHTHLJSA-N

>  <ref_pdb>  (28) 
B0691a

>  <alias>  (28) 
None

$$$$
401
     RDKit          3D

 36 41  0  0  0  0  0  0  0  0999 V2000
   -2.1315   -0.4188   31.8263 C   0  0  0  0  0  0  0  0  0  0  0  0
   -0.7876   -1.0955   31.9416 C   0  0  0  0  0  0  0  0  0  0  0  0
   -0.7852   -2.6981   31.1979 S   0  0  2  0  0  0  0  0  0  0  0  0
   -1.9830   -3.4064   31.6105 O   0  0  0  0  0  0  0  0  0  0  0  0
    0.6407   -3.2928   31.3150 N   0  0  0  0  0  0  0  0  0  0  0  0
    0.6649   -4.6539   31.8381 C   0  0  0  0  0  0  0  0  0  0  0  0
    0.7131   -4.8705   33.2750 C   0  0  0  0  0  0  0  0  0  0  0  0
    0.1124   -5.9569   33.7922 C   0  0  0  0  0  0  0  0  0  0  0  0
    0.0806   -6.2212   35.5065 S   0  0  0  0  0  0  0  0  0  0  0  0
    1.5155   -7.2091   35.6080 C   0  0  0  0  0  0  0  0  0  0  0  0
    2.1739   -7.6924   34.5720 N   0  0  0  0  0  0  0  0  0  0  0  0
    3.2069   -8.4466   35.0741 N   0  0  0  0  0  0  0  0  0  0  0  0
    3.1324   -8.3631   36.3898 C   0  0  0  0  0  0  0  0  0  0  0  0
    4.0334   -9.0192   37.2738 C   0  0  0  0  0  0  0  0  0  0  0  0
    4.0865   -9.0172   38.6531 C   0  0  0  0  0  0  0  0  0  0  0  0
    5.1695   -9.8446   39.0403 C   0  0  0  0  0  0  0  0  0  0  0  0
    5.7486  -10.3283   37.8888 C   0  0  0  0  0  0  0  0  0  0  0  0
    5.0550   -9.8201   36.8215 N   0  0  0  0  0  0  0  0  0  0  0  0
    2.0766   -7.5866   36.7965 O   0  0  0  0  0  0  0  0  0  0  0  0
   -0.4741   -6.8584   32.8945 N   0  0  0  0  0  0  0  0  0  0  0  0
   -1.3243   -7.9058   33.0744 C   0  0  0  0  0  0  0  0  0  0  0  0
   -1.6130   -8.4746   31.9251 N   0  0  0  0  0  0  0  0  0  0  0  0
   -0.9765   -7.7702   30.9380 N   0  0  0  0  0  0  0  0  0  0  0  0
   -0.3294   -6.7827   31.5161 C   0  0  0  0  0  0  0  0  0  0  0  0
    0.2971   -5.6319   30.9866 C   0  0  0  0  0  0  0  0  0  0  0  0
   -1.0037   -2.5472   29.5631 N   0  0  0  0  0  0  0  0  0  0  0  0
    0.0119   -2.0607   28.6648 C   0  0  0  0  0  0  0  0  0  0  0  0
   -0.2987   -0.6574   28.2243 C   0  0  0  0  0  0  0  0  0  0  0  0
    0.6235    0.3889   28.4454 C   0  0  0  0  0  0  0  0  0  0  0  0
    0.3440    1.6883   28.0148 C   0  0  0  0  0  0  0  0  0  0  0  0
   -0.8551    1.9075   27.3720 C   0  0  0  0  0  0  0  0  0  0  0  0
   -1.7580    0.8972   27.1554 C   0  0  0  0  0  0  0  0  0  0  0  0
   -1.5114   -0.3902   27.5672 C   0  0  0  0  0  0  0  0  0  0  0  0
   -2.8619    1.3197   26.4880 O   0  0  0  0  0  0  0  0  0  0  0  0
   -2.5907    2.7291   26.3776 C   0  0  0  0  0  0  0  0  0  0  0  0
   -1.2806    3.0957   26.8680 O   0  0  0  0  0  0  0  0  0  0  0  0
  1  2  1  0
  3  2  1  1
  3  4  2  0
  3  5  2  0
  5  6  1  0
  6  7  1  0
  7  8  2  0
  8  9  1  0
  9 10  1  0
 10 11  2  0
 11 12  1  0
 12 13  2  0
 13 14  1  0
 14 15  2  0
 15 16  1  0
 16 17  2  0
 17 18  1  0
 13 19  1  0
  8 20  1  0
 20 21  1  0
 21 22  2  0
 22 23  1  0
 23 24  2  0
 24 25  1  0
  3 26  1  0
 26 27  1  0
 27 28  1  0
 28 29  2  0
 29 30  1  0
 30 31  2  0
 31 32  1  0
 32 33  2  0
 32 34  1  0
 34 35  1  0
 35 36  1  0
 25  6  2  0
 33 28  1  0
 19 10  1  0
 24 20  1  0
 36 31  1  0
 18 14  1  0
M  END
>  <SLURM_JOB_ID>  (29) 
350558

>  <original SMILES>  (29) 
CC[S@](=O)(=Nc1cc(Sc2nnc(-c3ccc[nH]3)o2)n2cnnc2c1)NCc1ccc2c(c1)OCO2

>  <tags>  (29) 
Fragmenstein placed

>  <inchikey>  (29) 
QKMHSSKDCKLSTK-PSXMRANNSA-N

>  <scratch_subdir>  (29) 
/opt/xchem-fragalysis-2/maxwin/BulkDock/SCRATCH/350558/C490-P13

>  <name>  (29) 
QKMHSSKDCKLSTK-PSXMRANNSA-N

>  <energy_score>  (29) 
-89.471009

>  <fragmenstein_error>  (29) 
None

>  <csv_name>  (29) 
D68EV3C_iter1_fstein_split1000_batch000.csv

>  <fragmenstein_mode>  (29) 
expansion

>  <HIPPO Compound ID>  (29) 
490

>  <HIPPO Pose ID>  (29) 
401

>  <ref_mols>  (29) 
7gp9-a,B0738a

>  <fragmenstein_runtime>  (29) 
2.62891

>  <fragmenstein_outcome>  (29) 
acceptable

>  <distance_score>  (29) 
0.368629

>  <score_inspiration>  (29) 
0.907413

>  <original ID>  (29) 
QKMHSSKDCKLSTK-PSXMRANNSA-N

>  <ref_pdb>  (29) 
7gp9-a

>  <alias>  (29) 
None

$$$$
409
     RDKit          3D

 36 41  0  0  0  0  0  0  0  0999 V2000
   -2.0825   -0.3273   31.8180 C   0  0  0  0  0  0  0  0  0  0  0  0
   -0.7707   -1.0564   31.9944 C   0  0  0  0  0  0  0  0  0  0  0  0
   -0.7832   -2.6554   31.2387 S   0  0  2  0  0  0  0  0  0  0  0  0
   -2.0118   -3.3386   31.5975 O   0  0  0  0  0  0  0  0  0  0  0  0
    0.6175   -3.2975   31.3913 N   0  0  0  0  0  0  0  0  0  0  0  0
    0.5946   -4.6486   31.9355 C   0  0  0  0  0  0  0  0  0  0  0  0
    0.6293   -4.8440   33.3746 C   0  0  0  0  0  0  0  0  0  0  0  0
    0.0414   -5.9316   33.9038 C   0  0  0  0  0  0  0  0  0  0  0  0
    0.0441   -6.1936   35.6176 S   0  0  0  0  0  0  0  0  0  0  0  0
    1.5485   -7.0758   35.6898 C   0  0  0  0  0  0  0  0  0  0  0  0
    2.1561   -7.6038   34.6436 N   0  0  0  0  0  0  0  0  0  0  0  0
    3.2751   -8.2430   35.1181 N   0  0  0  0  0  0  0  0  0  0  0  0
    3.2843   -8.0708   36.4291 C   0  0  0  0  0  0  0  0  0  0  0  0
    4.2358   -8.6783   37.2960 C   0  0  0  0  0  0  0  0  0  0  0  0
    4.2781   -8.7243   38.6747 C   0  0  0  0  0  0  0  0  0  0  0  0
    5.3836   -9.5308   39.0411 C   0  0  0  0  0  0  0  0  0  0  0  0
    5.9911   -9.9485   37.8784 C   0  0  0  0  0  0  0  0  0  0  0  0
    5.2947   -9.4176   36.8244 N   0  0  0  0  0  0  0  0  0  0  0  0
    2.2120   -7.3291   36.8562 O   0  0  0  0  0  0  0  0  0  0  0  0
   -0.5325   -6.8533   33.0196 N   0  0  0  0  0  0  0  0  0  0  0  0
   -1.3494   -7.9278   33.2134 C   0  0  0  0  0  0  0  0  0  0  0  0
   -1.6283   -8.5070   32.0664 N   0  0  0  0  0  0  0  0  0  0  0  0
   -1.0098   -7.7981   31.0720 N   0  0  0  0  0  0  0  0  0  0  0  0
   -0.3849   -6.7900   31.6398 C   0  0  0  0  0  0  0  0  0  0  0  0
    0.2336   -5.6399   31.0964 C   0  0  0  0  0  0  0  0  0  0  0  0
   -0.9275   -2.4818   29.5936 N   0  0  0  0  0  0  0  0  0  0  0  0
    0.1443   -1.9636   28.7768 C   0  0  0  0  0  0  0  0  0  0  0  0
   -0.1491   -0.5582   28.3318 C   0  0  0  0  0  0  0  0  0  0  0  0
    0.7775    0.4795   28.5694 C   0  0  0  0  0  0  0  0  0  0  0  0
    0.5226    1.7794   28.1257 C   0  0  0  0  0  0  0  0  0  0  0  0
   -0.6566    2.0083   27.4520 C   0  0  0  0  0  0  0  0  0  0  0  0
   -1.5635    1.0067   27.2168 C   0  0  0  0  0  0  0  0  0  0  0  0
   -1.3396   -0.2811   27.6412 C   0  0  0  0  0  0  0  0  0  0  0  0
   -2.6403    1.4384   26.5114 O   0  0  0  0  0  0  0  0  0  0  0  0
   -2.3639    2.8482   26.4309 C   0  0  0  0  0  0  0  0  0  0  0  0
   -1.0531    3.1966   26.9260 O   0  0  0  0  0  0  0  0  0  0  0  0
  1  2  1  0
  3  2  1  1
  3  4  2  0
  3  5  2  0
  5  6  1  0
  6  7  1  0
  7  8  2  0
  8  9  1  0
  9 10  1  0
 10 11  2  0
 11 12  1  0
 12 13  2  0
 13 14  1  0
 14 15  2  0
 15 16  1  0
 16 17  2  0
 17 18  1  0
 13 19  1  0
  8 20  1  0
 20 21  1  0
 21 22  2  0
 22 23  1  0
 23 24  2  0
 24 25  1  0
  3 26  1  0
 26 27  1  0
 27 28  1  0
 28 29  2  0
 29 30  1  0
 30 31  2  0
 31 32  1  0
 32 33  2  0
 32 34  1  0
 34 35  1  0
 35 36  1  0
 25  6  2  0
 33 28  1  0
 19 10  1  0
 24 20  1  0
 36 31  1  0
 18 14  1  0
M  END
>  <SLURM_JOB_ID>  (30) 
350558

>  <original SMILES>  (30) 
CC[S@](=O)(=Nc1cc(Sc2nnc(-c3ccc[nH]3)o2)n2cnnc2c1)NCc1ccc2c(c1)OCO2

>  <tags>  (30) 
Fragmenstein placed

>  <inchikey>  (30) 
QKMHSSKDCKLSTK-PSXMRANNSA-N

>  <scratch_subdir>  (30) 
/opt/xchem-fragalysis-2/maxwin/BulkDock/SCRATCH/350558/C490-P148

>  <name>  (30) 
QKMHSSKDCKLSTK-PSXMRANNSA-N

>  <energy_score>  (30) 
-90.59636

>  <fragmenstein_error>  (30) 
None

>  <csv_name>  (30) 
D68EV3C_iter1_fstein_split1000_batch000.csv

>  <fragmenstein_mode>  (30) 
expansion

>  <HIPPO Compound ID>  (30) 
490

>  <HIPPO Pose ID>  (30) 
409

>  <ref_mols>  (30) 
7gp9-a,B0738a

>  <fragmenstein_runtime>  (30) 
2.787811

>  <fragmenstein_outcome>  (30) 
acceptable

>  <distance_score>  (30) 
0.423324

>  <score_inspiration>  (30) 
0.884295

>  <original ID>  (30) 
QKMHSSKDCKLSTK-PSXMRANNSA-N

>  <ref_pdb>  (30) 
B0738a

>  <alias>  (30) 
None

$$$$
417
     RDKit          3D

 37 42  0  0  0  0  0  0  0  0999 V2000
   -2.0230   -0.4214   31.6969 C   0  0  0  0  0  0  0  0  0  0  0  0
   -0.6959   -1.1312   31.8104 C   0  0  0  0  0  0  0  0  0  0  0  0
   -0.7471   -2.7639   31.1428 S   0  0  2  0  0  0  0  0  0  0  0  0
   -1.9806   -3.3974   31.5710 O   0  0  0  0  0  0  0  0  0  0  0  0
    0.6591   -3.3960   31.2746 N   0  0  0  0  0  0  0  0  0  0  0  0
    0.6442   -4.8151   31.6148 C   0  0  0  0  0  0  0  0  0  0  0  0
    0.7197   -5.2218   33.0059 C   0  0  0  0  0  0  0  0  0  0  0  0
    0.1396   -6.3712   33.4042 C   0  0  0  0  0  0  0  0  0  0  0  0
    0.0974   -6.8429   34.7002 N   0  0  0  0  0  0  0  0  0  0  0  0
   -0.0668   -6.1443   35.8328 C   0  0  0  0  0  0  0  0  0  0  0  0
   -0.3057   -4.8439   35.9937 N   0  0  0  0  0  0  0  0  0  0  0  0
   -0.4762   -4.7611   37.3200 N   0  0  0  0  0  0  0  0  0  0  0  0
   -0.3205   -5.9758   37.9248 C   0  0  0  0  0  0  0  0  0  0  0  0
   -0.4398   -6.2371   39.3534 C   0  0  0  0  0  0  0  0  0  0  0  0
    0.1355   -7.4040   39.8799 C   0  0  0  0  0  0  0  0  0  0  0  0
   -0.0299   -7.7387   41.2239 C   0  0  0  0  0  0  0  0  0  0  0  0
   -0.7750   -6.9099   42.0578 C   0  0  0  0  0  0  0  0  0  0  0  0
   -1.3474   -5.7452   41.5508 C   0  0  0  0  0  0  0  0  0  0  0  0
   -1.1773   -5.4052   40.2062 C   0  0  0  0  0  0  0  0  0  0  0  0
   -0.0658   -6.8649   36.9856 N   0  0  0  0  0  0  0  0  0  0  0  0
   -0.4574   -7.1378   32.3939 N   0  0  0  0  0  0  0  0  0  0  0  0
   -1.3540   -8.1578   32.4682 C   0  0  0  0  0  0  0  0  0  0  0  0
   -1.5966   -8.6432   31.2772 N   0  0  0  0  0  0  0  0  0  0  0  0
   -0.9598   -7.8383   30.3663 N   0  0  0  0  0  0  0  0  0  0  0  0
   -0.3293   -6.8998   31.0384 C   0  0  0  0  0  0  0  0  0  0  0  0
    0.2687   -5.6796   30.6520 C   0  0  0  0  0  0  0  0  0  0  0  0
   -0.9179   -2.7274   29.4974 N   0  0  0  0  0  0  0  0  0  0  0  0
    0.0315   -2.1221   28.6041 C   0  0  0  0  0  0  0  0  0  0  0  0
   -0.3183   -0.7070   28.2364 C   0  0  0  0  0  0  0  0  0  0  0  0
    0.5899    0.3450   28.4920 C   0  0  0  0  0  0  0  0  0  0  0  0
    0.3034    1.6519   28.0891 C   0  0  0  0  0  0  0  0  0  0  0  0
   -0.8886    1.8746   27.4358 C   0  0  0  0  0  0  0  0  0  0  0  0
   -1.7797    0.8611   27.1903 C   0  0  0  0  0  0  0  0  0  0  0  0
   -1.5267   -0.4345   27.5752 C   0  0  0  0  0  0  0  0  0  0  0  0
   -2.8785    1.2866   26.5173 O   0  0  0  0  0  0  0  0  0  0  0  0
   -2.6096    2.6978   26.4136 C   0  0  0  0  0  0  0  0  0  0  0  0
   -1.3144    3.0668   26.9425 O   0  0  0  0  0  0  0  0  0  0  0  0
  1  2  1  0
  3  2  1  1
  3  4  2  0
  3  5  2  0
  5  6  1  0
  6  7  1  0
  7  8  2  0
  8  9  1  0
  9 10  1  0
 10 11  2  0
 11 12  1  0
 12 13  1  0
 13 14  1  0
 14 15  2  0
 15 16  1  0
 16 17  2  0
 17 18  1  0
 18 19  2  0
 13 20  2  0
  8 21  1  0
 21 22  1  0
 22 23  2  0
 23 24  1  0
 24 25  2  0
 25 26  1  0
  3 27  1  0
 27 28  1  0
 28 29  1  0
 29 30  2  0
 30 31  1  0
 31 32  2  0
 32 33  1  0
 33 34  2  0
 33 35  1  0
 35 36  1  0
 36 37  1  0
 26  6  2  0
 34 29  1  0
 20 10  1  0
 25 21  1  0
 37 32  1  0
 19 14  1  0
M  END
>  <SLURM_JOB_ID>  (31) 
350558

>  <original SMILES>  (31) 
CC[S@](=O)(=Nc1cc(Nc2n[nH]c(-c3ccccc3)n2)n2cnnc2c1)NCc1ccc2c(c1)OCO2

>  <tags>  (31) 
Fragmenstein placed

>  <inchikey>  (31) 
WVLCXBYYBBKDMZ-DIPNUNPCSA-N

>  <scratch_subdir>  (31) 
/opt/xchem-fragalysis-2/maxwin/BulkDock/SCRATCH/350558/C491-P13

>  <name>  (31) 
WVLCXBYYBBKDMZ-DIPNUNPCSA-N

>  <energy_score>  (31) 
-74.645735

>  <fragmenstein_error>  (31) 
None

>  <csv_name>  (31) 
D68EV3C_iter1_fstein_split1000_batch000.csv

>  <fragmenstein_mode>  (31) 
expansion

>  <HIPPO Compound ID>  (31) 
491

>  <HIPPO Pose ID>  (31) 
417

>  <ref_mols>  (31) 
7gp9-a,B0742a

>  <fragmenstein_runtime>  (31) 
6.060364

>  <fragmenstein_outcome>  (31) 
acceptable

>  <distance_score>  (31) 
0.530435

>  <score_inspiration>  (31) 
0.794385

>  <original ID>  (31) 
WVLCXBYYBBKDMZ-DIPNUNPCSA-N

>  <ref_pdb>  (31) 
7gp9-a

>  <alias>  (31) 
None

$$$$
419
     RDKit          3D

 30 31  0  0  0  0  0  0  0  0999 V2000
   -1.1178   -3.7452   31.4824 C   0  0  0  0  0  0  0  0  0  0  0  0
   -0.4506   -3.7138   30.1306 C   0  0  0  0  0  0  0  0  0  0  0  0
    0.7756   -4.6116   30.0437 C   0  0  0  0  0  0  0  0  0  0  0  0
    0.6072   -5.8099   29.0913 C   0  0  1  0  0  0  0  0  0  0  0  0
    1.9241   -6.2261   28.4753 C   0  0  0  0  0  0  0  0  0  0  0  0
    2.9376   -5.4518   28.0460 C   0  0  0  0  0  0  0  0  0  0  0  0
    4.1308   -6.1266   27.4940 C   0  0  0  0  0  0  0  0  0  0  0  0
    4.0778   -7.3246   27.2266 O   0  0  0  0  0  0  0  0  0  0  0  0
    5.2648   -5.4125   27.3639 O   0  0  0  0  0  0  0  0  0  0  0  0
    5.4264   -4.0049   27.6425 C   0  0  0  0  0  0  0  0  0  0  0  0
    5.5883   -3.7565   29.1330 C   0  0  0  0  0  0  0  0  0  0  0  0
   -0.1520   -7.0842   29.5903 C   0  0  0  0  0  0  0  0  0  0  0  0
   -0.5344   -7.2657   30.9646 N   0  0  0  0  0  0  0  0  0  0  0  0
    0.1658   -7.1086   32.1155 C   0  0  0  0  0  0  0  0  0  0  0  0
   -0.7544   -7.3382   33.1205 C   0  0  0  0  0  0  0  0  0  0  0  0
   -0.6978   -7.1555   34.6094 C   0  0  0  0  0  0  0  0  0  0  0  0
    0.4074   -6.2728   35.0380 N   0  0  0  0  0  0  0  0  0  0  0  0
    0.5008   -4.9426   34.4166 C   0  0  0  0  0  0  0  0  0  0  0  0
    1.8889   -4.7002   33.8608 C   0  0  0  0  0  0  0  0  0  0  0  0
    0.9478   -6.4294   36.6179 S   0  0  0  0  0  0  0  0  0  0  0  0
    2.3874   -6.3289   36.5596 O   0  0  0  0  0  0  0  0  0  0  0  0
    0.2866   -7.5489   37.2368 O   0  0  0  0  0  0  0  0  0  0  0  0
    0.3675   -5.0198   37.3243 N   0  0  0  0  0  0  0  0  0  0  0  0
    1.1835   -4.5205   38.4772 C   0  0  0  0  0  0  0  0  0  0  0  0
    0.4361   -3.4229   39.2711 C   0  0  0  0  0  0  0  0  0  0  0  0
   -0.4678   -2.6171   38.4292 N   0  0  0  0  0  0  0  0  0  0  0  0
   -1.5092   -3.4966   37.8586 C   0  0  0  0  0  0  0  0  0  0  0  0
   -1.0836   -4.9643   37.6258 C   0  0  0  0  0  0  0  0  0  0  0  0
   -1.8952   -7.8156   32.5371 N   0  0  0  0  0  0  0  0  0  0  0  0
   -1.7361   -7.7980   31.2241 N   0  0  0  0  0  0  0  0  0  0  0  0
  1  2  1  0
  2  3  1  0
  4  3  1  1
  4  5  1  0
  5  6  2  3
  6  7  1  0
  7  8  2  0
  7  9  1  0
  9 10  1  0
 10 11  1  0
  4 12  1  0
 12 13  1  0
 13 14  1  0
 14 15  2  0
 15 16  1  0
 16 17  1  0
 17 18  1  0
 18 19  1  0
 17 20  1  0
 20 21  2  0
 20 22  2  0
 20 23  1  0
 23 24  1  0
 24 25  1  0
 25 26  1  0
 26 27  1  0
 27 28  1  0
 15 29  1  0
 29 30  2  0
 30 13  1  0
 28 23  1  0
M  END
>  <SLURM_JOB_ID>  (32) 
350559

>  <original SMILES>  (32) 
CCC[C@@H](C=CC(=O)OCC)Cn1cc(CN(CC)S(=O)(=O)N2CCNCC2)nn1

>  <tags>  (32) 
Fragmenstein placed

>  <inchikey>  (32) 
MDRDNFHEYSIERZ-KRWDZBQOSA-N

>  <scratch_subdir>  (32) 
/opt/xchem-fragalysis-2/maxwin/BulkDock/SCRATCH/350559/C176-P168

>  <name>  (32) 
MDRDNFHEYSIERZ-KRWDZBQOSA-N

>  <energy_score>  (32) 
-42.314572

>  <fragmenstein_error>  (32) 
None

>  <csv_name>  (32) 
D68EV3C_iter1_fstein_split1000_batch001.csv

>  <fragmenstein_mode>  (32) 
expansion

>  <HIPPO Compound ID>  (32) 
176

>  <HIPPO Pose ID>  (32) 
419

>  <ref_mols>  (32) 
B1020a,B1462a

>  <fragmenstein_runtime>  (32) 
8.316072

>  <fragmenstein_outcome>  (32) 
acceptable

>  <distance_score>  (32) 
0.868381

>  <score_inspiration>  (32) 
0.676352

>  <original ID>  (32) 
MDRDNFHEYSIERZ-KRWDZBQOSA-N

>  <ref_pdb>  (32) 
B1020a

>  <alias>  (32) 
None

$$$$
426
     RDKit          3D

 37 42  0  0  0  0  0  0  0  0999 V2000
   -1.8822   -0.2309   31.7556 C   0  0  0  0  0  0  0  0  0  0  0  0
   -0.6144   -1.0403   31.9460 C   0  0  0  0  0  0  0  0  0  0  0  0
   -0.7007   -2.6308   31.1669 S   0  0  2  0  0  0  0  0  0  0  0  0
   -1.9207   -3.2933   31.5832 O   0  0  0  0  0  0  0  0  0  0  0  0
    0.6977   -3.2954   31.1646 N   0  0  0  0  0  0  0  0  0  0  0  0
    0.7242   -4.7098   31.5141 C   0  0  0  0  0  0  0  0  0  0  0  0
    1.1534   -5.1217   32.8382 C   0  0  0  0  0  0  0  0  0  0  0  0
    0.6281   -6.2331   33.3885 C   0  0  0  0  0  0  0  0  0  0  0  0
    0.9200   -6.6863   34.6668 N   0  0  0  0  0  0  0  0  0  0  0  0
    0.2297   -6.2604   35.7473 C   0  0  0  0  0  0  0  0  0  0  0  0
   -0.7988   -5.4209   35.7637 N   0  0  0  0  0  0  0  0  0  0  0  0
   -1.0315   -5.2952   37.0702 N   0  0  0  0  0  0  0  0  0  0  0  0
   -0.2135   -6.1033   37.8075 C   0  0  0  0  0  0  0  0  0  0  0  0
   -0.3620   -6.3494   39.2391 C   0  0  0  0  0  0  0  0  0  0  0  0
    0.2549   -7.4766   39.8006 C   0  0  0  0  0  0  0  0  0  0  0  0
    0.0641   -7.8019   41.1445 C   0  0  0  0  0  0  0  0  0  0  0  0
   -0.7449   -7.0012   41.9460 C   0  0  0  0  0  0  0  0  0  0  0  0
   -1.3553   -5.8713   41.4074 C   0  0  0  0  0  0  0  0  0  0  0  0
   -1.1620   -5.5426   40.0628 C   0  0  0  0  0  0  0  0  0  0  0  0
    0.6534   -6.6580   36.9781 N   0  0  0  0  0  0  0  0  0  0  0  0
   -0.2536   -6.9751   32.5812 N   0  0  0  0  0  0  0  0  0  0  0  0
   -1.1101   -7.9979   32.8602 C   0  0  0  0  0  0  0  0  0  0  0  0
   -1.6453   -8.4576   31.7503 N   0  0  0  0  0  0  0  0  0  0  0  0
   -1.2051   -7.6798   30.7124 N   0  0  0  0  0  0  0  0  0  0  0  0
   -0.4213   -6.7587   31.2223 C   0  0  0  0  0  0  0  0  0  0  0  0
    0.1175   -5.5732   30.6772 C   0  0  0  0  0  0  0  0  0  0  0  0
   -0.9551   -2.4014   29.5356 N   0  0  0  0  0  0  0  0  0  0  0  0
    0.1138   -1.9459   28.6736 C   0  0  0  0  0  0  0  0  0  0  0  0
   -0.0787   -0.5036   28.3089 C   0  0  0  0  0  0  0  0  0  0  0  0
    0.8639    0.4854   28.6475 C   0  0  0  0  0  0  0  0  0  0  0  0
    0.6660    1.8152   28.2622 C   0  0  0  0  0  0  0  0  0  0  0  0
   -0.4752    2.1205   27.5514 C   0  0  0  0  0  0  0  0  0  0  0  0
   -1.4034    1.1660   27.2330 C   0  0  0  0  0  0  0  0  0  0  0  0
   -1.2240   -0.1478   27.5897 C   0  0  0  0  0  0  0  0  0  0  0  0
   -2.4339    1.6614   26.5007 O   0  0  0  0  0  0  0  0  0  0  0  0
   -2.0383    3.0394   26.3718 C   0  0  0  0  0  0  0  0  0  0  0  0
   -0.8034    3.3417   27.0565 O   0  0  0  0  0  0  0  0  0  0  0  0
  1  2  1  0
  3  2  1  1
  3  4  2  0
  3  5  2  0
  5  6  1  0
  6  7  1  0
  7  8  2  0
  8  9  1  0
  9 10  1  0
 10 11  2  0
 11 12  1  0
 12 13  1  0
 13 14  1  0
 14 15  2  0
 15 16  1  0
 16 17  2  0
 17 18  1  0
 18 19  2  0
 13 20  2  0
  8 21  1  0
 21 22  1  0
 22 23  2  0
 23 24  1  0
 24 25  2  0
 25 26  1  0
  3 27  1  0
 27 28  1  0
 28 29  1  0
 29 30  2  0
 30 31  1  0
 31 32  2  0
 32 33  1  0
 33 34  2  0
 33 35  1  0
 35 36  1  0
 36 37  1  0
 26  6  2  0
 34 29  1  0
 20 10  1  0
 25 21  1  0
 37 32  1  0
 19 14  1  0
M  END
>  <SLURM_JOB_ID>  (33) 
350558

>  <original SMILES>  (33) 
CC[S@](=O)(=Nc1cc(Nc2n[nH]c(-c3ccccc3)n2)n2cnnc2c1)NCc1ccc2c(c1)OCO2

>  <tags>  (33) 
Fragmenstein placed

>  <inchikey>  (33) 
WVLCXBYYBBKDMZ-DIPNUNPCSA-N

>  <scratch_subdir>  (33) 
/opt/xchem-fragalysis-2/maxwin/BulkDock/SCRATCH/350558/C491-P150

>  <name>  (33) 
WVLCXBYYBBKDMZ-DIPNUNPCSA-N

>  <energy_score>  (33) 
-68.202431

>  <fragmenstein_error>  (33) 
None

>  <csv_name>  (33) 
D68EV3C_iter1_fstein_split1000_batch000.csv

>  <fragmenstein_mode>  (33) 
expansion

>  <HIPPO Compound ID>  (33) 
491

>  <HIPPO Pose ID>  (33) 
426

>  <ref_mols>  (33) 
7gp9-a,B0742a

>  <fragmenstein_runtime>  (33) 
5.076226

>  <fragmenstein_outcome>  (33) 
acceptable

>  <distance_score>  (33) 
0.541895

>  <score_inspiration>  (33) 
0.824099

>  <original ID>  (33) 
WVLCXBYYBBKDMZ-DIPNUNPCSA-N

>  <ref_pdb>  (33) 
B0742a

>  <alias>  (33) 
None

$$$$
441
     RDKit          3D

 40 45  0  0  0  0  0  0  0  0999 V2000
   -1.5753   -0.6006   32.9606 C   0  0  0  0  0  0  0  0  0  0  0  0
   -1.3310   -0.8168   31.4788 C   0  0  0  0  0  0  0  0  0  0  0  0
   -0.7213   -2.4538   31.1533 S   0  0  2  0  0  0  0  0  0  0  0  0
   -1.7245   -3.3884   31.6237 O   0  0  0  0  0  0  0  0  0  0  0  0
    0.7784   -2.4803   31.5009 N   0  0  0  0  0  0  0  0  0  0  0  0
    1.6306   -3.6304   31.1525 C   0  0  0  0  0  0  0  0  0  0  0  0
    1.0452   -4.9011   31.6854 C   0  0  0  0  0  0  0  0  0  0  0  0
    0.9937   -5.0160   33.1354 C   0  0  0  0  0  0  0  0  0  0  0  0
    0.2186   -5.9604   33.6886 C   0  0  0  0  0  0  0  0  0  0  0  0
    0.2163   -5.8991   35.1057 N   0  0  0  0  0  0  0  0  0  0  0  0
   -0.4520   -4.8123   35.8326 C   0  0  0  0  0  0  0  0  0  0  0  0
    0.5614   -4.1623   36.7835 C   0  0  0  0  0  0  0  0  0  0  0  0
    1.6540   -5.1122   37.3152 C   0  0  0  0  0  0  0  0  0  0  0  0
    1.1262   -6.5296   37.5460 C   0  0  2  0  0  0  0  0  0  0  0  0
    2.0245   -7.4970   38.2803 C   0  0  0  0  0  0  0  0  0  0  0  0
    3.4176   -7.5122   38.1285 C   0  0  0  0  0  0  0  0  0  0  0  0
    4.1960   -8.4373   38.8295 C   0  0  0  0  0  0  0  0  0  0  0  0
    3.5947   -9.3566   39.6867 C   0  0  0  0  0  0  0  0  0  0  0  0
    2.2127   -9.3581   39.8421 C   0  0  0  0  0  0  0  0  0  0  0  0
    1.4338   -8.4379   39.1427 C   0  0  0  0  0  0  0  0  0  0  0  0
    0.6165   -7.2866   35.9751 S   0  0  0  0  0  0  0  0  0  0  0  0
   -0.6242   -7.9864   36.2222 O   0  0  0  0  0  0  0  0  0  0  0  0
    1.7296   -7.9065   35.2797 O   0  0  0  0  0  0  0  0  0  0  0  0
   -0.4641   -6.8513   32.8563 N   0  0  0  0  0  0  0  0  0  0  0  0
   -1.3907   -7.8204   33.0897 C   0  0  0  0  0  0  0  0  0  0  0  0
   -1.7619   -8.3919   31.9626 N   0  0  0  0  0  0  0  0  0  0  0  0
   -1.0984   -7.7712   30.9375 N   0  0  0  0  0  0  0  0  0  0  0  0
   -0.3446   -6.8350   31.4712 C   0  0  0  0  0  0  0  0  0  0  0  0
    0.4455   -5.8125   30.8906 C   0  0  0  0  0  0  0  0  0  0  0  0
   -0.7458   -2.7343   29.5105 N   0  0  0  0  0  0  0  0  0  0  0  0
    0.0932   -2.0524   28.5590 C   0  0  0  0  0  0  0  0  0  0  0  0
   -0.3253   -0.6518   28.2240 C   0  0  0  0  0  0  0  0  0  0  0  0
    0.5454    0.4278   28.5029 C   0  0  0  0  0  0  0  0  0  0  0  0
    0.2258    1.7271   28.1066 C   0  0  0  0  0  0  0  0  0  0  0  0
   -0.9604    1.9141   27.4344 C   0  0  0  0  0  0  0  0  0  0  0  0
   -1.8182    0.8748   27.1723 C   0  0  0  0  0  0  0  0  0  0  0  0
   -1.5370   -0.4151   27.5597 C   0  0  0  0  0  0  0  0  0  0  0  0
   -2.9118    1.2715   26.4727 O   0  0  0  0  0  0  0  0  0  0  0  0
   -2.6796    2.6896   26.3782 C   0  0  0  0  0  0  0  0  0  0  0  0
   -1.4102    3.0952   26.9363 O   0  0  0  0  0  0  0  0  0  0  0  0
  1  2  1  0
  3  2  1  6
  3  4  2  0
  3  5  2  0
  5  6  1  0
  6  7  1  0
  7  8  1  0
  8  9  2  0
  9 10  1  0
 10 11  1  0
 11 12  1  0
 12 13  1  0
 13 14  1  0
 14 15  1  6
 15 16  2  0
 16 17  1  0
 17 18  2  0
 18 19  1  0
 19 20  2  0
 14 21  1  0
 21 22  2  0
 21 23  2  0
  9 24  1  0
 24 25  1  0
 25 26  2  0
 26 27  1  0
 27 28  2  0
 28 29  1  0
  3 30  1  0
 30 31  1  0
 31 32  1  0
 32 33  2  0
 33 34  1  0
 34 35  2  0
 35 36  1  0
 36 37  2  0
 36 38  1  0
 38 39  1  0
 39 40  1  0
 29  7  2  0
 37 32  1  0
 21 10  1  0
 28 24  1  0
 40 35  1  0
 20 15  1  0
M  END
>  <SLURM_JOB_ID>  (34) 
350558

>  <original SMILES>  (34) 
CC[S@](=O)(=NCc1cc(N2CCC[C@H](c3ccccc3)S2(=O)=O)n2cnnc2c1)NCc1ccc2c(c1)OCO2

>  <tags>  (34) 
Fragmenstein placed

>  <inchikey>  (34) 
GGSNEERVTDVMAB-IWIKFHKFSA-N

>  <scratch_subdir>  (34) 
/opt/xchem-fragalysis-2/maxwin/BulkDock/SCRATCH/350558/C492-P13

>  <name>  (34) 
GGSNEERVTDVMAB-IWIKFHKFSA-N

>  <energy_score>  (34) 
-106.793377

>  <fragmenstein_error>  (34) 
None

>  <csv_name>  (34) 
D68EV3C_iter1_fstein_split1000_batch000.csv

>  <fragmenstein_mode>  (34) 
expansion

>  <HIPPO Compound ID>  (34) 
492

>  <HIPPO Pose ID>  (34) 
441

>  <ref_mols>  (34) 
7gp9-a,B0805a

>  <fragmenstein_runtime>  (34) 
12.396457

>  <fragmenstein_outcome>  (34) 
acceptable

>  <distance_score>  (34) 
0.57335

>  <score_inspiration>  (34) 
0.838455

>  <original ID>  (34) 
GGSNEERVTDVMAB-IWIKFHKFSA-N

>  <ref_pdb>  (34) 
7gp9-a

>  <alias>  (34) 
None

$$$$
442
     RDKit          3D

 31 36  0  0  0  0  0  0  0  0999 V2000
   -2.3080   -0.9057   31.4167 C   0  0  0  0  0  0  0  0  0  0  0  0
   -1.1146   -0.8346   32.3381 C   0  0  0  0  0  0  0  0  0  0  0  0
   -0.4566   -2.4423   32.7474 S   0  0  1  0  0  6  0  0  0  0  0  0
   -1.3409   -3.4646   32.2192 O   0  0  0  0  0  0  0  0  0  0  0  0
    1.0931   -2.3956   32.5709 N   0  0  0  0  0  0  0  0  0  0  0  0
    1.5782   -2.8771   31.2163 N   0  0  0  0  0  0  0  0  0  0  0  0
    1.4652   -4.1940   30.8569 C   0  0  0  0  0  0  0  0  0  0  0  0
    2.2471   -5.4235   31.7729 S   0  0  0  0  0  0  0  0  0  0  0  0
    0.9224   -5.9879   32.7302 C   0  0  0  0  0  0  0  0  0  0  0  0
    0.8856   -5.7367   34.0563 C   0  0  0  0  0  0  0  0  0  0  0  0
   -0.1598   -6.3338   34.8744 C   0  0  0  0  0  0  0  0  0  0  0  0
   -1.0781   -7.1597   34.3402 C   0  0  0  0  0  0  0  0  0  0  0  0
   -1.0539   -7.4307   32.9465 C   0  0  0  0  0  0  0  0  0  0  0  0
   -1.7972   -8.1935   32.1727 N   0  0  0  0  0  0  0  0  0  0  0  0
   -1.3046   -8.1098   30.8950 N   0  0  0  0  0  0  0  0  0  0  0  0
   -0.2750   -7.2966   30.9231 C   0  0  0  0  0  0  0  0  0  0  0  0
   -0.0602   -6.8285   32.1906 N   0  0  0  0  0  0  0  0  0  0  0  0
    0.7322   -4.3213   29.7726 N   0  0  0  0  0  0  0  0  0  0  0  0
    0.5106   -3.0134   29.3719 C   0  0  0  0  0  0  0  0  0  0  0  0
   -0.3749   -2.4684   28.4397 C   0  0  0  0  0  0  0  0  0  0  0  0
   -0.4108   -1.0725   28.2301 C   0  0  0  0  0  0  0  0  0  0  0  0
   -1.4059   -0.4910   27.4270 C   0  0  0  0  0  0  0  0  0  0  0  0
   -1.3878    0.8711   27.2240 C   0  0  0  0  0  0  0  0  0  0  0  0
   -0.4229    1.6644   27.7846 C   0  0  0  0  0  0  0  0  0  0  0  0
    0.5518    1.1485   28.6099 C   0  0  0  0  0  0  0  0  0  0  0  0
    0.5475   -0.2321   28.8647 C   0  0  0  0  0  0  0  0  0  0  0  0
    1.4182   -0.7653   29.8213 C   0  0  0  0  0  0  0  0  0  0  0  0
    1.2868   -2.1271   30.1066 C   0  0  0  0  0  0  0  0  0  0  0  0
   -0.5868    2.9783   27.4766 O   0  0  0  0  0  0  0  0  0  0  0  0
   -1.8314    2.9326   26.7426 C   0  0  0  0  0  0  0  0  0  0  0  0
   -2.2749    1.5827   26.4791 O   0  0  0  0  0  0  0  0  0  0  0  0
  1  2  1  0
  3  2  1  6
  3  4  2  0
  3  5  2  0
  5  6  1  0
  6  7  1  0
  7  8  1  0
  8  9  1  0
  9 10  2  0
 10 11  1  0
 11 12  2  0
 12 13  1  0
 13 14  2  0
 14 15  1  0
 15 16  2  0
 16 17  1  0
  7 18  2  0
 18 19  1  0
 19 20  2  0
 20 21  1  0
 21 22  2  0
 22 23  1  0
 23 24  2  0
 24 25  1  0
 25 26  2  0
 26 27  1  0
 27 28  2  0
 24 29  1  0
 29 30  1  0
 30 31  1  0
 28  6  1  0
 17  9  1  0
 28 19  1  0
 17 13  1  0
 26 21  1  0
 31 23  1  0
M  END
>  <SLURM_JOB_ID>  (35) 
350559

>  <original SMILES>  (35) 
CC/[S@@H](=O)=N/n1c(Sc2cccc3nncn23)nc2cc3cc4c(cc3cc21)OCO4

>  <tags>  (35) 
Fragmenstein placed

>  <inchikey>  (35) 
KRPJRXCBIRLSTM-UHFFFAOYSA-N

>  <scratch_subdir>  (35) 
/opt/xchem-fragalysis-2/maxwin/BulkDock/SCRATCH/350559/C178-P13

>  <name>  (35) 
KRPJRXCBIRLSTM-UHFFFAOYSA-N

>  <energy_score>  (35) 
-32.779696

>  <fragmenstein_error>  (35) 
None

>  <csv_name>  (35) 
D68EV3C_iter1_fstein_split1000_batch001.csv

>  <fragmenstein_mode>  (35) 
expansion

>  <HIPPO Compound ID>  (35) 
178

>  <HIPPO Pose ID>  (35) 
442

>  <ref_mols>  (35) 
7gp9-a,B1219a

>  <fragmenstein_runtime>  (35) 
6.888297

>  <fragmenstein_outcome>  (35) 
acceptable

>  <distance_score>  (35) 
0.982555

>  <score_inspiration>  (35) 
0.751239

>  <original ID>  (35) 
KRPJRXCBIRLSTM-UHFFFAOYSA-N

>  <ref_pdb>  (35) 
7gp9-a

>  <alias>  (35) 
None

$$$$
450
     RDKit          3D

 31 36  0  0  0  0  0  0  0  0999 V2000
   -2.0767   -0.5978   31.6751 C   0  0  0  0  0  0  0  0  0  0  0  0
   -0.8835   -0.7174   32.5868 C   0  0  0  0  0  0  0  0  0  0  0  0
   -0.3411   -2.4012   32.8240 S   0  0  1  0  0  6  0  0  0  0  0  0
   -1.2953   -3.3099   32.2154 O   0  0  0  0  0  0  0  0  0  0  0  0
    1.2066   -2.4350   32.6317 N   0  0  0  0  0  0  0  0  0  0  0  0
    1.6498   -2.8968   31.2631 N   0  0  0  0  0  0  0  0  0  0  0  0
    1.5196   -4.2037   30.8825 C   0  0  0  0  0  0  0  0  0  0  0  0
    2.2998   -5.4480   31.7807 S   0  0  0  0  0  0  0  0  0  0  0  0
    0.9639   -6.0182   32.7160 C   0  0  0  0  0  0  0  0  0  0  0  0
    0.9106   -5.7899   34.0456 C   0  0  0  0  0  0  0  0  0  0  0  0
   -0.1492   -6.3957   34.8390 C   0  0  0  0  0  0  0  0  0  0  0  0
   -1.0605   -7.2125   34.2788 C   0  0  0  0  0  0  0  0  0  0  0  0
   -1.0119   -7.4631   32.8813 C   0  0  0  0  0  0  0  0  0  0  0  0
   -1.7339   -8.2207   32.0850 N   0  0  0  0  0  0  0  0  0  0  0  0
   -1.2276   -8.1109   30.8148 N   0  0  0  0  0  0  0  0  0  0  0  0
   -0.2104   -7.2844   30.8659 C   0  0  0  0  0  0  0  0  0  0  0  0
   -0.0120   -6.8447   32.1470 N   0  0  0  0  0  0  0  0  0  0  0  0
    0.7780   -4.3058   29.8005 N   0  0  0  0  0  0  0  0  0  0  0  0
    0.5754   -2.9875   29.4187 C   0  0  0  0  0  0  0  0  0  0  0  0
   -0.2918   -2.4154   28.4849 C   0  0  0  0  0  0  0  0  0  0  0  0
   -0.2763   -1.0161   28.2860 C   0  0  0  0  0  0  0  0  0  0  0  0
   -1.2229   -0.4039   27.4561 C   0  0  0  0  0  0  0  0  0  0  0  0
   -1.1760    0.9610   27.2692 C   0  0  0  0  0  0  0  0  0  0  0  0
   -0.2173    1.7301   27.8695 C   0  0  0  0  0  0  0  0  0  0  0  0
    0.7210    1.1842   28.7159 C   0  0  0  0  0  0  0  0  0  0  0  0
    0.6808   -0.1995   28.9513 C   0  0  0  0  0  0  0  0  0  0  0  0
    1.5187   -0.7606   29.9158 C   0  0  0  0  0  0  0  0  0  0  0  0
    1.3621   -2.1242   30.1712 C   0  0  0  0  0  0  0  0  0  0  0  0
   -0.3428    3.0493   27.5685 O   0  0  0  0  0  0  0  0  0  0  0  0
   -1.5556    3.0342   26.7840 C   0  0  0  0  0  0  0  0  0  0  0  0
   -2.0244    1.6963   26.5010 O   0  0  0  0  0  0  0  0  0  0  0  0
  1  2  1  0
  3  2  1  6
  3  4  2  0
  3  5  2  0
  5  6  1  0
  6  7  1  0
  7  8  1  0
  8  9  1  0
  9 10  2  0
 10 11  1  0
 11 12  2  0
 12 13  1  0
 13 14  2  0
 14 15  1  0
 15 16  2  0
 16 17  1  0
  7 18  2  0
 18 19  1  0
 19 20  2  0
 20 21  1  0
 21 22  2  0
 22 23  1  0
 23 24  2  0
 24 25  1  0
 25 26  2  0
 26 27  1  0
 27 28  2  0
 24 29  1  0
 29 30  1  0
 30 31  1  0
 28  6  1  0
 17  9  1  0
 28 19  1  0
 17 13  1  0
 26 21  1  0
 31 23  1  0
M  END
>  <SLURM_JOB_ID>  (36) 
350559

>  <original SMILES>  (36) 
CC/[S@@H](=O)=N/n1c(Sc2cccc3nncn23)nc2cc3cc4c(cc3cc21)OCO4

>  <tags>  (36) 
Fragmenstein placed

>  <inchikey>  (36) 
KRPJRXCBIRLSTM-UHFFFAOYSA-N

>  <scratch_subdir>  (36) 
/opt/xchem-fragalysis-2/maxwin/BulkDock/SCRATCH/350559/C178-P180

>  <name>  (36) 
KRPJRXCBIRLSTM-UHFFFAOYSA-N

>  <energy_score>  (36) 
-34.376448

>  <fragmenstein_error>  (36) 
None

>  <csv_name>  (36) 
D68EV3C_iter1_fstein_split1000_batch001.csv

>  <fragmenstein_mode>  (36) 
expansion

>  <HIPPO Compound ID>  (36) 
178

>  <HIPPO Pose ID>  (36) 
450

>  <ref_mols>  (36) 
7gp9-a,B1219a

>  <fragmenstein_runtime>  (36) 
4.306089

>  <fragmenstein_outcome>  (36) 
acceptable

>  <distance_score>  (36) 
0.981491

>  <score_inspiration>  (36) 
0.719307

>  <original ID>  (36) 
KRPJRXCBIRLSTM-UHFFFAOYSA-N

>  <ref_pdb>  (36) 
B1219a

>  <alias>  (36) 
None

$$$$
454
     RDKit          3D

 40 45  0  0  0  0  0  0  0  0999 V2000
   -1.6172   -0.6330   33.0520 C   0  0  0  0  0  0  0  0  0  0  0  0
   -1.3173   -0.7725   31.5716 C   0  0  0  0  0  0  0  0  0  0  0  0
   -0.7426   -2.4060   31.1761 S   0  0  2  0  0  0  0  0  0  0  0  0
   -1.7867   -3.3399   31.5472 O   0  0  0  0  0  0  0  0  0  0  0  0
    0.7457   -2.4962   31.5588 N   0  0  0  0  0  0  0  0  0  0  0  0
    1.5621   -3.6539   31.1541 C   0  0  0  0  0  0  0  0  0  0  0  0
    0.9617   -4.9145   31.6879 C   0  0  0  0  0  0  0  0  0  0  0  0
    0.9526   -5.0289   33.1363 C   0  0  0  0  0  0  0  0  0  0  0  0
    0.1878   -5.9638   33.7167 C   0  0  0  0  0  0  0  0  0  0  0  0
    0.2607   -5.8928   35.1299 N   0  0  0  0  0  0  0  0  0  0  0  0
   -0.4111   -4.8203   35.8766 C   0  0  0  0  0  0  0  0  0  0  0  0
    0.5999   -4.1655   36.8252 C   0  0  0  0  0  0  0  0  0  0  0  0
    1.7020   -5.1057   37.3467 C   0  0  0  0  0  0  0  0  0  0  0  0
    1.1916   -6.5317   37.5587 C   0  0  2  0  0  0  0  0  0  0  0  0
    2.1100   -7.4770   38.2922 C   0  0  0  0  0  0  0  0  0  0  0  0
    3.4952   -7.5152   38.0822 C   0  0  0  0  0  0  0  0  0  0  0  0
    4.2963   -8.4078   38.7999 C   0  0  0  0  0  0  0  0  0  0  0  0
    3.7260   -9.2703   39.7334 C   0  0  0  0  0  0  0  0  0  0  0  0
    2.3529   -9.2464   39.9475 C   0  0  0  0  0  0  0  0  0  0  0  0
    1.5509   -8.3608   39.2297 C   0  0  0  0  0  0  0  0  0  0  0  0
    0.7009   -7.2764   35.9767 S   0  0  0  0  0  0  0  0  0  0  0  0
   -0.5176   -8.0201   36.1919 O   0  0  0  0  0  0  0  0  0  0  0  0
    1.8173   -7.8580   35.2509 O   0  0  0  0  0  0  0  0  0  0  0  0
   -0.5224   -6.8604   32.9119 N   0  0  0  0  0  0  0  0  0  0  0  0
   -1.4131   -7.8607   33.1709 C   0  0  0  0  0  0  0  0  0  0  0  0
   -1.7920   -8.4400   32.0506 N   0  0  0  0  0  0  0  0  0  0  0  0
   -1.1808   -7.7971   31.0082 N   0  0  0  0  0  0  0  0  0  0  0  0
   -0.4431   -6.8394   31.5214 C   0  0  0  0  0  0  0  0  0  0  0  0
    0.3223   -5.8140   30.9121 C   0  0  0  0  0  0  0  0  0  0  0  0
   -0.7059   -2.5847   29.5213 N   0  0  0  0  0  0  0  0  0  0  0  0
    0.2047   -1.8719   28.6639 C   0  0  0  0  0  0  0  0  0  0  0  0
   -0.2192   -0.4847   28.2954 C   0  0  0  0  0  0  0  0  0  0  0  0
    0.5445    0.6287   28.7104 C   0  0  0  0  0  0  0  0  0  0  0  0
    0.2039    1.9207   28.3056 C   0  0  0  0  0  0  0  0  0  0  0  0
   -0.8956    2.0661   27.4908 C   0  0  0  0  0  0  0  0  0  0  0  0
   -1.6431    0.9896   27.0869 C   0  0  0  0  0  0  0  0  0  0  0  0
   -1.3342   -0.2941   27.4723 C   0  0  0  0  0  0  0  0  0  0  0  0
   -2.6619    1.3458   26.2629 O   0  0  0  0  0  0  0  0  0  0  0  0
   -2.5364    2.7796   26.2820 C   0  0  0  0  0  0  0  0  0  0  0  0
   -1.3553    3.2360   26.9754 O   0  0  0  0  0  0  0  0  0  0  0  0
  1  2  1  0
  3  2  1  6
  3  4  2  0
  3  5  2  0
  5  6  1  0
  6  7  1  0
  7  8  1  0
  8  9  2  0
  9 10  1  0
 10 11  1  0
 11 12  1  0
 12 13  1  0
 13 14  1  0
 14 15  1  6
 15 16  2  0
 16 17  1  0
 17 18  2  0
 18 19  1  0
 19 20  2  0
 14 21  1  0
 21 22  2  0
 21 23  2  0
  9 24  1  0
 24 25  1  0
 25 26  2  0
 26 27  1  0
 27 28  2  0
 28 29  1  0
  3 30  1  0
 30 31  1  0
 31 32  1  0
 32 33  2  0
 33 34  1  0
 34 35  2  0
 35 36  1  0
 36 37  2  0
 36 38  1  0
 38 39  1  0
 39 40  1  0
 29  7  2  0
 37 32  1  0
 21 10  1  0
 28 24  1  0
 40 35  1  0
 20 15  1  0
M  END
>  <SLURM_JOB_ID>  (37) 
350558

>  <original SMILES>  (37) 
CC[S@](=O)(=NCc1cc(N2CCC[C@H](c3ccccc3)S2(=O)=O)n2cnnc2c1)NCc1ccc2c(c1)OCO2

>  <tags>  (37) 
Fragmenstein placed

>  <inchikey>  (37) 
GGSNEERVTDVMAB-IWIKFHKFSA-N

>  <scratch_subdir>  (37) 
/opt/xchem-fragalysis-2/maxwin/BulkDock/SCRATCH/350558/C492-P152

>  <name>  (37) 
GGSNEERVTDVMAB-IWIKFHKFSA-N

>  <energy_score>  (37) 
-106.07355

>  <fragmenstein_error>  (37) 
None

>  <csv_name>  (37) 
D68EV3C_iter1_fstein_split1000_batch000.csv

>  <fragmenstein_mode>  (37) 
expansion

>  <HIPPO Compound ID>  (37) 
492

>  <HIPPO Pose ID>  (37) 
454

>  <ref_mols>  (37) 
7gp9-a,B0805a

>  <fragmenstein_runtime>  (37) 
8.60639

>  <fragmenstein_outcome>  (37) 
acceptable

>  <distance_score>  (37) 
0.604518

>  <score_inspiration>  (37) 
0.820662

>  <original ID>  (37) 
GGSNEERVTDVMAB-IWIKFHKFSA-N

>  <ref_pdb>  (37) 
B0805a

>  <alias>  (37) 
None

$$$$
473
     RDKit          3D

 39 43  0  0  0  0  0  0  0  0999 V2000
   -2.4548   -0.6331   32.1361 C   0  0  0  0  0  0  0  0  0  0  0  0
   -1.1370   -1.3115   32.4341 C   0  0  0  0  0  0  0  0  0  0  0  0
   -0.9315   -2.8841   31.5982 S   0  0  0  0  0  0  0  0  0  0  0  0
    0.2987   -3.4943   32.0465 O   0  0  0  0  0  0  0  0  0  0  0  0
   -2.1758   -3.6241   31.6476 O   0  0  0  0  0  0  0  0  0  0  0  0
   -0.7238   -2.4568   29.9973 N   0  0  0  0  0  0  0  0  0  0  0  0
    0.5013   -1.7388   29.6678 C   0  0  1  0  0  0  0  0  0  0  0  0
    1.3294   -2.5979   28.8486 N   0  0  0  0  0  0  0  0  0  0  0  0
    0.9024   -2.7100   27.4523 C   0  0  0  0  0  0  0  0  0  0  0  0
    1.9077   -3.5070   26.6004 C   0  0  1  0  0  0  0  0  0  0  0  0
    1.3437   -3.8554   25.3028 N   0  0  0  0  0  0  0  0  0  0  0  0
    3.1699   -2.7613   26.3880 C   0  0  0  0  0  0  0  0  0  0  0  0
    3.1240   -1.5586   25.7440 O   0  0  0  0  0  0  0  0  0  0  0  0
    4.4328   -1.2323   25.5741 C   0  0  0  0  0  0  0  0  0  0  0  0
    5.2951   -2.0801   26.0902 N   0  0  0  0  0  0  0  0  0  0  0  0
    4.4893   -3.0558   26.6343 C   0  0  0  0  0  0  0  0  0  0  0  0
    4.9627   -4.2728   27.2630 C   0  0  0  0  0  0  0  0  0  0  0  0
    4.6271   -4.5701   28.3411 O   0  0  0  0  0  0  0  0  0  0  0  0
    5.8282   -5.0344   26.2398 N   0  0  0  0  0  0  0  0  0  0  0  0
    6.5024   -6.2105   26.3537 C   0  0  0  0  0  0  0  0  0  0  0  0
    6.5471   -6.9974   25.2693 C   0  0  0  0  0  0  0  0  0  0  0  0
    7.0661   -8.2614   25.2972 N   0  0  0  0  0  0  0  0  0  0  0  0
    7.6110   -8.8485   26.4107 C   0  0  0  0  0  0  0  0  0  0  0  0
    8.0377   -9.9975   26.3981 O   0  0  0  0  0  0  0  0  0  0  0  0
    7.6677   -7.9939   27.6287 C   0  0  0  0  0  0  0  0  0  0  0  0
    8.3138   -8.4830   28.7690 C   0  0  0  0  0  0  0  0  0  0  0  0
    8.4373   -7.6802   29.9010 C   0  0  0  0  0  0  0  0  0  0  0  0
    7.9362   -6.3847   29.8846 C   0  0  0  0  0  0  0  0  0  0  0  0
    7.3064   -5.8929   28.7387 C   0  0  0  0  0  0  0  0  0  0  0  0
    7.1244   -6.6957   27.6020 C   0  0  0  0  0  0  0  0  0  0  0  0
    0.2510   -0.3537   29.0753 C   0  0  0  0  0  0  0  0  0  0  0  0
    1.3436    0.4828   28.7341 C   0  0  0  0  0  0  0  0  0  0  0  0
    1.1504    1.7249   28.1150 C   0  0  0  0  0  0  0  0  0  0  0  0
   -0.1399    2.1295   27.8686 C   0  0  0  0  0  0  0  0  0  0  0  0
   -1.2071    1.3597   28.2433 C   0  0  0  0  0  0  0  0  0  0  0  0
   -1.0474    0.1175   28.8273 C   0  0  0  0  0  0  0  0  0  0  0  0
   -2.3900    1.8901   27.8314 O   0  0  0  0  0  0  0  0  0  0  0  0
   -1.9551    3.1238   27.2265 C   0  0  0  0  0  0  0  0  0  0  0  0
   -0.5169    3.2467   27.1934 O   0  0  0  0  0  0  0  0  0  0  0  0
  1  2  1  0
  2  3  1  0
  3  4  2  0
  3  5  2  0
  3  6  1  0
  7  6  1  6
  7  8  1  0
  8  9  1  0
  9 10  1  0
 10 11  1  6
 10 12  1  0
 12 13  1  0
 13 14  1  0
 14 15  2  0
 15 16  1  0
 16 17  1  0
 17 18  2  0
 17 19  1  0
 19 20  1  0
 20 21  2  0
 21 22  1  0
 22 23  1  0
 23 24  2  0
 23 25  1  0
 25 26  2  0
 26 27  1  0
 27 28  2  0
 28 29  1  0
 29 30  2  0
  7 31  1  0
 31 32  2  0
 32 33  1  0
 33 34  2  0
 34 35  1  0
 35 36  2  0
 35 37  1  0
 37 38  1  0
 38 39  1  0
 16 12  2  0
 30 20  1  0
 36 31  1  0
 30 25  1  0
 39 34  1  0
M  END
>  <SLURM_JOB_ID>  (38) 
350558

>  <original SMILES>  (38) 
CCS(=O)(=O)N[C@@H](NC[C@@H](N)c1ocnc1C(=O)Nc1c[nH]c(=O)c2ccccc12)c1ccc2c(c1)OCO2

>  <tags>  (38) 
Fragmenstein placed

>  <inchikey>  (38) 
RLOYLZZKMQZFCX-UZUQRXQVSA-N

>  <scratch_subdir>  (38) 
/opt/xchem-fragalysis-2/maxwin/BulkDock/SCRATCH/350558/C493-P154

>  <name>  (38) 
RLOYLZZKMQZFCX-UZUQRXQVSA-N

>  <energy_score>  (38) 
-87.06761

>  <fragmenstein_error>  (38) 
None

>  <csv_name>  (38) 
D68EV3C_iter1_fstein_split1000_batch000.csv

>  <fragmenstein_mode>  (38) 
expansion

>  <HIPPO Compound ID>  (38) 
493

>  <HIPPO Pose ID>  (38) 
473

>  <ref_mols>  (38) 
7gp9-a,B0839a

>  <fragmenstein_runtime>  (38) 
9.934688

>  <fragmenstein_outcome>  (38) 
acceptable

>  <distance_score>  (38) 
0.861234

>  <score_inspiration>  (38) 
0.693524

>  <original ID>  (38) 
RLOYLZZKMQZFCX-UZUQRXQVSA-N

>  <ref_pdb>  (38) 
B0839a

>  <alias>  (38) 
None

$$$$
476
     RDKit          3D

 28 32  0  0  0  0  0  0  0  0999 V2000
    4.3246   -3.3888   34.4316 C   0  0  0  0  0  0  0  0  0  0  0  0
    3.2328   -4.2443   35.0748 C   0  0  1  0  0  0  0  0  0  0  0  0
    3.3839   -4.2373   36.5808 C   0  0  0  0  0  0  0  0  0  0  0  0
    2.6824   -2.9534   36.9918 C   0  0  0  0  0  0  0  0  0  0  0  0
    1.8385   -2.5617   35.8953 O   0  0  0  0  0  0  0  0  0  0  0  0
    1.8573   -3.6079   34.9003 C   0  0  2  0  0  0  0  0  0  0  0  0
    0.7190   -4.5960   35.1877 C   0  0  0  0  0  0  0  0  0  0  0  0
    0.1511   -4.5652   36.2890 O   0  0  0  0  0  0  0  0  0  0  0  0
    0.2357   -5.6278   34.1826 C   0  0  0  0  0  0  0  0  0  0  0  0
   -0.8179   -6.5038   34.7480 C   0  0  0  0  0  0  0  0  0  0  0  0
   -1.4584   -7.4430   34.0435 C   0  0  0  0  0  0  0  0  0  0  0  0
   -1.1686   -7.5903   32.6767 C   0  0  0  0  0  0  0  0  0  0  0  0
   -1.6889   -8.3533   31.7425 N   0  0  0  0  0  0  0  0  0  0  0  0
   -1.0234   -8.0979   30.5763 N   0  0  0  0  0  0  0  0  0  0  0  0
   -0.1043   -7.1987   30.8373 C   0  0  0  0  0  0  0  0  0  0  0  0
   -0.1468   -6.8172   32.1550 N   0  0  0  0  0  0  0  0  0  0  0  0
    0.6092   -5.8732   32.8941 C   0  0  0  0  0  0  0  0  0  0  0  0
    2.0408   -5.2412   32.1279 S   0  0  0  0  0  0  0  0  0  0  0  0
    1.3712   -4.1023   31.0301 C   0  0  0  0  0  0  0  0  0  0  0  0
    0.1165   -3.9132   30.7149 N   0  0  0  0  0  0  0  0  0  0  0  0
    0.1394   -2.8635   29.8173 C   0  0  0  0  0  0  0  0  0  0  0  0
   -0.9145   -2.2039   29.1759 C   0  0  0  0  0  0  0  0  0  0  0  0
   -0.6035   -1.1236   28.3497 C   0  0  0  0  0  0  0  0  0  0  0  0
   -1.5959   -0.4373   27.7682 F   0  0  0  0  0  0  0  0  0  0  0  0
    0.7105   -0.7158   28.1303 C   0  0  0  0  0  0  0  0  0  0  0  0
    1.7798   -1.3786   28.7365 C   0  0  0  0  0  0  0  0  0  0  0  0
    1.4473   -2.4384   29.5818 C   0  0  0  0  0  0  0  0  0  0  0  0
    2.2129   -3.2661   30.3575 N   0  0  0  0  0  0  0  0  0  0  0  0
  2  1  1  6
  2  3  1  0
  3  4  1  0
  4  5  1  0
  5  6  1  0
  6  7  1  1
  7  8  2  0
  7  9  1  0
  9 10  1  0
 10 11  2  0
 11 12  1  0
 12 13  2  0
 13 14  1  0
 14 15  2  0
 15 16  1  0
 16 17  1  0
 17 18  1  0
 18 19  1  0
 19 20  2  0
 20 21  1  0
 21 22  2  0
 22 23  1  0
 23 24  1  0
 23 25  2  0
 25 26  1  0
 26 27  2  0
 27 28  1  0
  6  2  1  0
 17  9  2  0
 28 19  1  0
 16 12  1  0
 27 21  1  0
M  END
>  <SLURM_JOB_ID>  (39) 
350559

>  <original SMILES>  (39) 
C[C@H]1CCO[C@@H]1C(=O)c1ccc2nncn2c1Sc1nc2cc(F)ccc2[nH]1

>  <tags>  (39) 
Fragmenstein placed

>  <inchikey>  (39) 
RTJLOAFRGVVSCQ-BTDLBPIBSA-N

>  <scratch_subdir>  (39) 
/opt/xchem-fragalysis-2/maxwin/BulkDock/SCRATCH/350559/C180-P41

>  <name>  (39) 
RTJLOAFRGVVSCQ-BTDLBPIBSA-N

>  <energy_score>  (39) 
-60.006969

>  <fragmenstein_error>  (39) 
None

>  <csv_name>  (39) 
D68EV3C_iter1_fstein_split1000_batch001.csv

>  <fragmenstein_mode>  (39) 
expansion

>  <HIPPO Compound ID>  (39) 
180

>  <HIPPO Pose ID>  (39) 
476

>  <ref_mols>  (39) 
7gol-a,B1219a

>  <fragmenstein_runtime>  (39) 
1.544915

>  <fragmenstein_outcome>  (39) 
acceptable

>  <distance_score>  (39) 
0.9045

>  <score_inspiration>  (39) 
0.755788

>  <original ID>  (39) 
RTJLOAFRGVVSCQ-BTDLBPIBSA-N

>  <ref_pdb>  (39) 
7gol-a

>  <alias>  (39) 
None

$$$$
482
     RDKit          3D

 28 32  0  0  0  0  0  0  0  0999 V2000
    4.3417   -3.3820   34.4632 C   0  0  0  0  0  0  0  0  0  0  0  0
    3.2445   -4.2466   35.0847 C   0  0  1  0  0  0  0  0  0  0  0  0
    3.3618   -4.2340   36.5937 C   0  0  0  0  0  0  0  0  0  0  0  0
    2.6375   -2.9569   36.9856 C   0  0  0  0  0  0  0  0  0  0  0  0
    1.8162   -2.5755   35.8684 O   0  0  0  0  0  0  0  0  0  0  0  0
    1.8670   -3.6248   34.8780 C   0  0  2  0  0  0  0  0  0  0  0  0
    0.7333   -4.6244   35.1425 C   0  0  0  0  0  0  0  0  0  0  0  0
    0.1455   -4.6007   36.2334 O   0  0  0  0  0  0  0  0  0  0  0  0
    0.2780   -5.6577   34.1246 C   0  0  0  0  0  0  0  0  0  0  0  0
   -0.7845   -6.5388   34.6651 C   0  0  0  0  0  0  0  0  0  0  0  0
   -1.3971   -7.4861   33.9467 C   0  0  0  0  0  0  0  0  0  0  0  0
   -1.0764   -7.6288   32.5856 C   0  0  0  0  0  0  0  0  0  0  0  0
   -1.5684   -8.3952   31.6395 N   0  0  0  0  0  0  0  0  0  0  0  0
   -0.8691   -8.1478   30.4919 N   0  0  0  0  0  0  0  0  0  0  0  0
    0.0323   -7.2360   30.7697 C   0  0  0  0  0  0  0  0  0  0  0  0
   -0.0457   -6.8520   32.0869 N   0  0  0  0  0  0  0  0  0  0  0  0
    0.6855   -5.9036   32.8459 C   0  0  0  0  0  0  0  0  0  0  0  0
    2.1323   -5.2661   32.1136 S   0  0  0  0  0  0  0  0  0  0  0  0
    1.4756   -4.1202   31.0149 C   0  0  0  0  0  0  0  0  0  0  0  0
    0.2353   -3.9866   30.6236 N   0  0  0  0  0  0  0  0  0  0  0  0
    0.2569   -2.9014   29.7710 C   0  0  0  0  0  0  0  0  0  0  0  0
   -0.7884   -2.2757   29.0856 C   0  0  0  0  0  0  0  0  0  0  0  0
   -0.4916   -1.1334   28.3423 C   0  0  0  0  0  0  0  0  0  0  0  0
   -1.4830   -0.4722   27.7317 F   0  0  0  0  0  0  0  0  0  0  0  0
    0.8072   -0.6423   28.2301 C   0  0  0  0  0  0  0  0  0  0  0  0
    1.8738   -1.2800   28.8669 C   0  0  0  0  0  0  0  0  0  0  0  0
    1.5502   -2.3959   29.6403 C   0  0  0  0  0  0  0  0  0  0  0  0
    2.3114   -3.2173   30.4269 N   0  0  0  0  0  0  0  0  0  0  0  0
  2  1  1  6
  2  3  1  0
  3  4  1  0
  4  5  1  0
  5  6  1  0
  6  7  1  1
  7  8  2  0
  7  9  1  0
  9 10  1  0
 10 11  2  0
 11 12  1  0
 12 13  2  0
 13 14  1  0
 14 15  2  0
 15 16  1  0
 16 17  1  0
 17 18  1  0
 18 19  1  0
 19 20  2  0
 20 21  1  0
 21 22  2  0
 22 23  1  0
 23 24  1  0
 23 25  2  0
 25 26  1  0
 26 27  2  0
 27 28  1  0
  6  2  1  0
 17  9  2  0
 28 19  1  0
 16 12  1  0
 27 21  1  0
M  END
>  <SLURM_JOB_ID>  (40) 
350559

>  <original SMILES>  (40) 
C[C@H]1CCO[C@@H]1C(=O)c1ccc2nncn2c1Sc1nc2cc(F)ccc2[nH]1

>  <tags>  (40) 
Fragmenstein placed

>  <inchikey>  (40) 
RTJLOAFRGVVSCQ-BTDLBPIBSA-N

>  <scratch_subdir>  (40) 
/opt/xchem-fragalysis-2/maxwin/BulkDock/SCRATCH/350559/C180-P180

>  <name>  (40) 
RTJLOAFRGVVSCQ-BTDLBPIBSA-N

>  <energy_score>  (40) 
-59.991864

>  <fragmenstein_error>  (40) 
None

>  <csv_name>  (40) 
D68EV3C_iter1_fstein_split1000_batch001.csv

>  <fragmenstein_mode>  (40) 
expansion

>  <HIPPO Compound ID>  (40) 
180

>  <HIPPO Pose ID>  (40) 
482

>  <ref_mols>  (40) 
7gol-a,B1219a

>  <fragmenstein_runtime>  (40) 
3.014469

>  <fragmenstein_outcome>  (40) 
acceptable

>  <distance_score>  (40) 
0.914458

>  <score_inspiration>  (40) 
0.755605

>  <original ID>  (40) 
RTJLOAFRGVVSCQ-BTDLBPIBSA-N

>  <ref_pdb>  (40) 
B1219a

>  <alias>  (40) 
None

$$$$
484
     RDKit          3D

 33 37  0  0  0  0  0  0  0  0999 V2000
   -2.3523   -0.6270   31.6947 C   0  0  0  0  0  0  0  0  0  0  0  0
   -0.9007   -1.0226   31.7944 C   0  0  0  0  0  0  0  0  0  0  0  0
   -0.5730   -2.6174   31.1037 S   0  0  2  0  0  0  0  0  0  0  0  0
   -1.5336   -3.5473   31.6612 O   0  0  0  0  0  0  0  0  0  0  0  0
    0.9537   -2.7798   31.0552 N   0  0  0  0  0  0  0  0  0  0  0  0
    1.5682   -4.0246   30.5881 C   0  0  0  0  0  0  0  0  0  0  0  0
    1.1034   -5.1692   31.4396 C   0  0  0  0  0  0  0  0  0  0  0  0
    0.3465   -6.1300   30.8706 C   0  0  0  0  0  0  0  0  0  0  0  0
   -0.4410   -6.9708   31.6773 C   0  0  0  0  0  0  0  0  0  0  0  0
   -1.2916   -7.9247   31.3816 N   0  0  0  0  0  0  0  0  0  0  0  0
   -1.8622   -8.3236   32.5601 N   0  0  0  0  0  0  0  0  0  0  0  0
   -1.3507   -7.6153   33.5464 C   0  0  0  0  0  0  0  0  0  0  0  0
   -1.6093   -7.7595   34.8726 N   0  0  0  0  0  0  0  0  0  0  0  0
   -0.4244   -6.7358   33.0401 N   0  0  0  0  0  0  0  0  0  0  0  0
    0.4083   -5.8095   33.6610 C   0  0  0  0  0  0  0  0  0  0  0  0
    1.2275   -5.0433   32.9121 C   0  0  0  0  0  0  0  0  0  0  0  0
    2.0412   -4.0031   33.5795 C   0  0  0  0  0  0  0  0  0  0  0  0
    3.3973   -3.8419   33.2984 C   0  0  0  0  0  0  0  0  0  0  0  0
    4.1447   -2.8260   33.7938 N   0  0  0  0  0  0  0  0  0  0  0  0
    3.4695   -1.9580   34.5783 C   0  0  0  0  0  0  0  0  0  0  0  0
    2.1283   -2.1215   34.8853 C   0  0  0  0  0  0  0  0  0  0  0  0
    1.3914   -3.1536   34.4150 N   0  0  0  0  0  0  0  0  0  0  0  0
   -0.9703   -2.6576   29.5016 N   0  0  0  0  0  0  0  0  0  0  0  0
   -0.1864   -2.0924   28.4433 C   0  0  0  0  0  0  0  0  0  0  0  0
   -0.4852   -0.6549   28.1591 C   0  0  0  0  0  0  0  0  0  0  0  0
    0.4373    0.3570   28.5033 C   0  0  0  0  0  0  0  0  0  0  0  0
    0.2009    1.6845   28.1432 C   0  0  0  0  0  0  0  0  0  0  0  0
   -0.9579    1.9610   27.4509 C   0  0  0  0  0  0  0  0  0  0  0  0
   -1.8672    0.9828   27.1339 C   0  0  0  0  0  0  0  0  0  0  0  0
   -1.6651   -0.3293   27.4791 C   0  0  0  0  0  0  0  0  0  0  0  0
   -2.9244    1.4589   26.4295 O   0  0  0  0  0  0  0  0  0  0  0  0
   -2.6198    2.8656   26.4068 C   0  0  0  0  0  0  0  0  0  0  0  0
   -1.3319    3.1804   26.9833 O   0  0  0  0  0  0  0  0  0  0  0  0
  1  2  1  0
  3  2  1  1
  3  4  2  0
  3  5  2  0
  5  6  1  0
  6  7  1  0
  7  8  2  0
  8  9  1  0
  9 10  2  0
 10 11  1  0
 11 12  2  0
 12 13  1  0
 12 14  1  0
 14 15  1  0
 15 16  2  0
 16 17  1  0
 17 18  2  0
 18 19  1  0
 19 20  2  0
 20 21  1  0
 21 22  2  0
  3 23  1  0
 23 24  1  0
 24 25  1  0
 25 26  2  0
 26 27  1  0
 27 28  2  0
 28 29  1  0
 29 30  2  0
 29 31  1  0
 31 32  1  0
 32 33  1  0
 16  7  1  0
 22 17  1  0
 30 25  1  0
 14  9  1  0
 33 28  1  0
M  END
>  <SLURM_JOB_ID>  (41) 
350558

>  <original SMILES>  (41) 
CC[S@](=O)(=NCc1cc2nnc(N)n2cc1-c1cnccn1)NCc1ccc2c(c1)OCO2

>  <tags>  (41) 
Fragmenstein placed

>  <inchikey>  (41) 
MFUIOSQSBPZWTL-MGBGTMOVSA-N

>  <scratch_subdir>  (41) 
/opt/xchem-fragalysis-2/maxwin/BulkDock/SCRATCH/350558/C494-P13

>  <name>  (41) 
MFUIOSQSBPZWTL-MGBGTMOVSA-N

>  <energy_score>  (41) 
-64.816669

>  <fragmenstein_error>  (41) 
None

>  <csv_name>  (41) 
D68EV3C_iter1_fstein_split1000_batch000.csv

>  <fragmenstein_mode>  (41) 
expansion

>  <HIPPO Compound ID>  (41) 
494

>  <HIPPO Pose ID>  (41) 
484

>  <ref_mols>  (41) 
7gp9-a,B0857a

>  <fragmenstein_runtime>  (41) 
3.830919

>  <fragmenstein_outcome>  (41) 
acceptable

>  <distance_score>  (41) 
0.676689

>  <score_inspiration>  (41) 
0.757378

>  <original ID>  (41) 
MFUIOSQSBPZWTL-MGBGTMOVSA-N

>  <ref_pdb>  (41) 
7gp9-a

>  <alias>  (41) 
None

$$$$
496
     RDKit          3D

 33 37  0  0  0  0  0  0  0  0999 V2000
   -2.2121   -0.4624   31.7736 C   0  0  0  0  0  0  0  0  0  0  0  0
   -0.8105   -0.9935   31.9451 C   0  0  0  0  0  0  0  0  0  0  0  0
   -0.5632   -2.5725   31.1803 S   0  0  2  0  0  0  0  0  0  0  0  0
   -1.5874   -3.4810   31.6526 O   0  0  0  0  0  0  0  0  0  0  0  0
    0.9501   -2.8235   31.1375 N   0  0  0  0  0  0  0  0  0  0  0  0
    1.4944   -4.0705   30.5992 C   0  0  0  0  0  0  0  0  0  0  0  0
    1.0283   -5.2228   31.4371 C   0  0  0  0  0  0  0  0  0  0  0  0
    0.2751   -6.1866   30.8654 C   0  0  0  0  0  0  0  0  0  0  0  0
   -0.4693   -7.0599   31.6820 C   0  0  0  0  0  0  0  0  0  0  0  0
   -1.2684   -8.0607   31.3975 N   0  0  0  0  0  0  0  0  0  0  0  0
   -1.7914   -8.5002   32.5846 N   0  0  0  0  0  0  0  0  0  0  0  0
   -1.3193   -7.7591   33.5647 C   0  0  0  0  0  0  0  0  0  0  0  0
   -1.5780   -7.8999   34.8863 N   0  0  0  0  0  0  0  0  0  0  0  0
   -0.4386   -6.8367   33.0486 N   0  0  0  0  0  0  0  0  0  0  0  0
    0.3811   -5.8975   33.6649 C   0  0  0  0  0  0  0  0  0  0  0  0
    1.1771   -5.1124   32.9115 C   0  0  0  0  0  0  0  0  0  0  0  0
    1.9956   -4.0754   33.5842 C   0  0  0  0  0  0  0  0  0  0  0  0
    3.3455   -3.8940   33.2841 C   0  0  0  0  0  0  0  0  0  0  0  0
    4.0920   -2.8807   33.7867 N   0  0  0  0  0  0  0  0  0  0  0  0
    3.4223   -2.0349   34.5997 C   0  0  0  0  0  0  0  0  0  0  0  0
    2.0879   -2.2178   34.9253 C   0  0  0  0  0  0  0  0  0  0  0  0
    1.3525   -3.2480   34.4463 N   0  0  0  0  0  0  0  0  0  0  0  0
   -0.9092   -2.4888   29.5680 N   0  0  0  0  0  0  0  0  0  0  0  0
   -0.0426   -1.8984   28.5910 C   0  0  0  0  0  0  0  0  0  0  0  0
   -0.3443   -0.4704   28.2813 C   0  0  0  0  0  0  0  0  0  0  0  0
    0.5172    0.5654   28.6959 C   0  0  0  0  0  0  0  0  0  0  0  0
    0.2716    1.8847   28.3122 C   0  0  0  0  0  0  0  0  0  0  0  0
   -0.8364    2.1282   27.5304 C   0  0  0  0  0  0  0  0  0  0  0  0
   -1.6854    1.1244   27.1420 C   0  0  0  0  0  0  0  0  0  0  0  0
   -1.4669   -0.1796   27.5013 C   0  0  0  0  0  0  0  0  0  0  0  0
   -2.7015    1.5670   26.3607 O   0  0  0  0  0  0  0  0  0  0  0  0
   -2.4446    2.9830   26.3701 C   0  0  0  0  0  0  0  0  0  0  0  0
   -1.2110    3.3350   27.0335 O   0  0  0  0  0  0  0  0  0  0  0  0
  1  2  1  0
  3  2  1  1
  3  4  2  0
  3  5  2  0
  5  6  1  0
  6  7  1  0
  7  8  2  0
  8  9  1  0
  9 10  2  0
 10 11  1  0
 11 12  2  0
 12 13  1  0
 12 14  1  0
 14 15  1  0
 15 16  2  0
 16 17  1  0
 17 18  2  0
 18 19  1  0
 19 20  2  0
 20 21  1  0
 21 22  2  0
  3 23  1  0
 23 24  1  0
 24 25  1  0
 25 26  2  0
 26 27  1  0
 27 28  2  0
 28 29  1  0
 29 30  2  0
 29 31  1  0
 31 32  1  0
 32 33  1  0
 16  7  1  0
 22 17  1  0
 30 25  1  0
 14  9  1  0
 33 28  1  0
M  END
>  <SLURM_JOB_ID>  (42) 
350558

>  <original SMILES>  (42) 
CC[S@](=O)(=NCc1cc2nnc(N)n2cc1-c1cnccn1)NCc1ccc2c(c1)OCO2

>  <tags>  (42) 
Fragmenstein placed

>  <inchikey>  (42) 
MFUIOSQSBPZWTL-MGBGTMOVSA-N

>  <scratch_subdir>  (42) 
/opt/xchem-fragalysis-2/maxwin/BulkDock/SCRATCH/350558/C494-P156

>  <name>  (42) 
MFUIOSQSBPZWTL-MGBGTMOVSA-N

>  <energy_score>  (42) 
-65.502947

>  <fragmenstein_error>  (42) 
None

>  <csv_name>  (42) 
D68EV3C_iter1_fstein_split1000_batch000.csv

>  <fragmenstein_mode>  (42) 
expansion

>  <HIPPO Compound ID>  (42) 
494

>  <HIPPO Pose ID>  (42) 
496

>  <ref_mols>  (42) 
7gp9-a,B0857a

>  <fragmenstein_runtime>  (42) 
2.988236

>  <fragmenstein_outcome>  (42) 
acceptable

>  <distance_score>  (42) 
0.729585

>  <score_inspiration>  (42) 
0.720786

>  <original ID>  (42) 
MFUIOSQSBPZWTL-MGBGTMOVSA-N

>  <ref_pdb>  (42) 
B0857a

>  <alias>  (42) 
None

$$$$
500
     RDKit          3D

 36 41  0  0  0  0  0  0  0  0999 V2000
    5.7825    3.0934   27.2782 C   0  0  0  0  0  0  0  0  0  0  0  0
    4.6032    3.9795   27.0212 C   0  0  0  0  0  0  0  0  0  0  0  0
    4.7687    5.3614   27.0003 C   0  0  0  0  0  0  0  0  0  0  0  0
    3.6518    6.1632   26.8144 C   0  0  0  0  0  0  0  0  0  0  0  0
    2.4105    5.5620   26.6607 C   0  0  0  0  0  0  0  0  0  0  0  0
    2.3355    4.1753   26.6655 C   0  0  0  0  0  0  0  0  0  0  0  0
    1.1304    3.5527   26.4358 N   0  0  0  0  0  0  0  0  0  0  0  0
   -0.3136    4.1083   26.4853 C   0  0  0  0  0  0  0  0  0  0  0  0
   -0.6997    5.1969   26.6530 O   0  0  0  0  0  0  0  0  0  0  0  0
   -1.2432    2.9358   26.1517 C   0  0  2  0  0  0  0  0  0  0  0  0
   -2.7020    3.2289   26.4470 C   0  0  0  0  0  0  0  0  0  0  0  0
   -3.3317    1.8732   26.6509 C   0  0  0  0  0  0  0  0  0  0  0  0
   -2.2005    0.8794   26.4764 C   0  0  0  0  0  0  0  0  0  0  0  0
   -0.9464    1.6115   26.7785 N   0  0  0  0  0  0  0  0  0  0  0  0
   -0.7884    1.6618   28.2418 C   0  0  0  0  0  0  0  0  0  0  0  0
   -1.1007    0.4077   28.8752 O   0  0  0  0  0  0  0  0  0  0  0  0
   -0.1511   -0.5739   28.9406 C   0  0  0  0  0  0  0  0  0  0  0  0
    1.0884   -0.5466   28.2999 C   0  0  0  0  0  0  0  0  0  0  0  0
    2.0563   -1.5272   28.5479 C   0  0  0  0  0  0  0  0  0  0  0  0
    1.7205   -2.5154   29.4722 C   0  0  0  0  0  0  0  0  0  0  0  0
    2.4450   -3.5265   30.0411 N   0  0  0  0  0  0  0  0  0  0  0  0
    1.6538   -4.1319   30.9741 C   0  0  0  0  0  0  0  0  0  0  0  0
    2.3707   -5.2877   32.0271 S   0  0  0  0  0  0  0  0  0  0  0  0
    0.9860   -5.9133   32.8535 C   0  0  0  0  0  0  0  0  0  0  0  0
    0.8674   -5.7480   34.1881 C   0  0  0  0  0  0  0  0  0  0  0  0
   -0.2068   -6.4175   34.9053 C   0  0  0  0  0  0  0  0  0  0  0  0
   -1.0731   -7.2250   34.2673 C   0  0  0  0  0  0  0  0  0  0  0  0
   -0.9743   -7.3959   32.8613 C   0  0  0  0  0  0  0  0  0  0  0  0
   -1.6711   -8.1031   31.9954 N   0  0  0  0  0  0  0  0  0  0  0  0
   -1.1228   -7.9142   30.7518 N   0  0  0  0  0  0  0  0  0  0  0  0
   -0.1056   -7.0963   30.8937 C   0  0  0  0  0  0  0  0  0  0  0  0
    0.0463   -6.7271   32.2037 N   0  0  0  0  0  0  0  0  0  0  0  0
    0.4277   -3.6736   30.9607 N   0  0  0  0  0  0  0  0  0  0  0  0
    0.4690   -2.6162   30.0730 C   0  0  0  0  0  0  0  0  0  0  0  0
   -0.4986   -1.6485   29.7767 C   0  0  0  0  0  0  0  0  0  0  0  0
    3.4038    3.3767   26.8399 N   0  0  0  0  0  0  0  0  0  0  0  0
  1  2  1  0
  2  3  2  0
  3  4  1  0
  4  5  2  0
  5  6  1  0
  6  7  1  0
  7  8  1  0
  8  9  2  0
 10  8  1  1
 10 11  1  0
 11 12  1  0
 12 13  1  0
 13 14  1  0
 14 15  1  0
 15 16  1  0
 16 17  1  0
 17 18  2  0
 18 19  1  0
 19 20  2  0
 20 21  1  0
 21 22  1  0
 22 23  1  0
 23 24  1  0
 24 25  2  0
 25 26  1  0
 26 27  2  0
 27 28  1  0
 28 29  2  0
 29 30  1  0
 30 31  2  0
 31 32  1  0
 22 33  2  0
 33 34  1  0
 34 35  2  0
  6 36  2  0
 36  2  1  0
 14 10  1  0
 35 17  1  0
 34 20  1  0
 32 24  1  0
 32 28  1  0
M  END
>  <SLURM_JOB_ID>  (43) 
350559

>  <original SMILES>  (43) 
Cc1cccc(NC(=O)[C@@H]2CCCN2COc2ccc3[nH]c(Sc4cccc5nncn45)nc3c2)n1

>  <tags>  (43) 
Fragmenstein placed

>  <inchikey>  (43) 
HJOQAPPBMNRIHP-FQEVSTJZSA-N

>  <scratch_subdir>  (43) 
/opt/xchem-fragalysis-2/maxwin/BulkDock/SCRATCH/350559/C182-P53

>  <name>  (43) 
HJOQAPPBMNRIHP-FQEVSTJZSA-N

>  <energy_score>  (43) 
-38.453793

>  <fragmenstein_error>  (43) 
None

>  <csv_name>  (43) 
D68EV3C_iter1_fstein_split1000_batch001.csv

>  <fragmenstein_mode>  (43) 
expansion

>  <HIPPO Compound ID>  (43) 
182

>  <HIPPO Pose ID>  (43) 
500

>  <ref_mols>  (43) 
7gpf-a,B1219a

>  <fragmenstein_runtime>  (43) 
5.173419

>  <fragmenstein_outcome>  (43) 
acceptable

>  <distance_score>  (43) 
0.663439

>  <score_inspiration>  (43) 
0.774705

>  <original ID>  (43) 
HJOQAPPBMNRIHP-FQEVSTJZSA-N

>  <ref_pdb>  (43) 
7gpf-a

>  <alias>  (43) 
None

$$$$
501
     RDKit          3D

 35 39  0  0  0  0  0  0  0  0999 V2000
   -2.5427   -0.6118   31.7791 C   0  0  0  0  0  0  0  0  0  0  0  0
   -1.0909   -0.9229   32.0095 C   0  0  0  0  0  0  0  0  0  0  0  0
   -0.6614   -2.5637   31.5302 S   0  0  2  0  0  0  0  0  0  0  0  0
   -1.6765   -3.4720   32.0241 O   0  0  0  0  0  0  0  0  0  0  0  0
    0.8418   -2.7187   31.8035 N   0  0  0  0  0  0  0  0  0  0  0  0
    1.2897   -3.6225   32.8802 C   0  0  0  0  0  0  0  0  0  0  0  0
    0.9013   -5.0242   32.5167 C   0  0  0  0  0  0  0  0  0  0  0  0
    1.2810   -5.4348   31.1589 C   0  0  0  0  0  0  0  0  0  0  0  0
    0.7578   -6.5197   30.5785 C   0  0  0  0  0  0  0  0  0  0  0  0
   -0.2180   -7.2680   31.2622 C   0  0  0  0  0  0  0  0  0  0  0  0
   -1.0577   -8.2023   30.8805 N   0  0  0  0  0  0  0  0  0  0  0  0
   -1.7753   -8.5783   31.9835 N   0  0  0  0  0  0  0  0  0  0  0  0
   -1.3343   -7.8834   33.0102 C   0  0  0  0  0  0  0  0  0  0  0  0
   -0.3696   -7.0048   32.6111 N   0  0  0  0  0  0  0  0  0  0  0  0
    0.2330   -5.9203   33.2772 C   0  0  0  0  0  0  0  0  0  0  0  0
    0.1688   -5.8447   34.6386 N   0  0  0  0  0  0  0  0  0  0  0  0
    0.3860   -6.9524   35.7273 C   0  0  0  0  0  0  0  0  0  0  0  0
    0.7179   -8.0394   35.6163 O   0  0  0  0  0  0  0  0  0  0  0  0
    0.1002   -6.1122   37.0117 N   0  0  0  0  0  0  0  0  0  0  0  0
    0.0857   -6.4830   38.3228 C   0  0  0  0  0  0  0  0  0  0  0  0
    0.4395   -7.7352   38.8691 C   0  0  0  0  0  0  0  0  0  0  0  0
    0.3103   -7.7586   40.1974 N   0  0  0  0  0  0  0  0  0  0  0  0
   -0.1405   -6.5285   40.4931 N   0  0  0  0  0  0  0  0  0  0  0  0
   -0.2756   -5.7166   39.3990 C   0  0  0  0  0  0  0  0  0  0  0  0
   -0.8162   -2.7518   29.8795 N   0  0  0  0  0  0  0  0  0  0  0  0
    0.1103   -2.2229   28.9026 C   0  0  0  0  0  0  0  0  0  0  0  0
   -0.2291   -0.8202   28.4685 C   0  0  0  0  0  0  0  0  0  0  0  0
    0.6776    0.2395   28.6916 C   0  0  0  0  0  0  0  0  0  0  0  0
    0.3995    1.5309   28.2317 C   0  0  0  0  0  0  0  0  0  0  0  0
   -0.7839    1.7326   27.5551 C   0  0  0  0  0  0  0  0  0  0  0  0
   -1.6751    0.7121   27.3373 C   0  0  0  0  0  0  0  0  0  0  0  0
   -1.4312   -0.5690   27.7827 C   0  0  0  0  0  0  0  0  0  0  0  0
   -2.7635    1.1198   26.6339 O   0  0  0  0  0  0  0  0  0  0  0  0
   -2.4921    2.5264   26.4906 C   0  0  0  0  0  0  0  0  0  0  0  0
   -1.2032    2.9106   27.0209 O   0  0  0  0  0  0  0  0  0  0  0  0
  1  2  1  0
  3  2  1  6
  3  4  2  0
  3  5  2  0
  5  6  1  0
  6  7  1  0
  7  8  1  0
  8  9  2  0
  9 10  1  0
 10 11  2  0
 11 12  1  0
 12 13  2  0
 13 14  1  0
 14 15  1  0
 15 16  1  0
 16 17  1  0
 17 18  2  0
 17 19  1  0
 19 20  1  0
 20 21  1  0
 21 22  2  0
 22 23  1  0
 23 24  1  0
  3 25  1  0
 25 26  1  0
 26 27  1  0
 27 28  2  0
 28 29  1  0
 29 30  2  0
 30 31  1  0
 31 32  2  0
 31 33  1  0
 33 34  1  0
 34 35  1  0
 15  7  2  0
 24 20  2  0
 32 27  1  0
 14 10  1  0
 35 30  1  0
M  END
>  <SLURM_JOB_ID>  (44) 
350558

>  <original SMILES>  (44) 
CC[S@](=O)(=NCc1ccc2nncn2c1NC(=O)Nc1cn[nH]c1)NCc1ccc2c(c1)OCO2

>  <tags>  (44) 
Fragmenstein placed

>  <inchikey>  (44) 
IOOBSWUQFSORJH-PGUFJCEWSA-N

>  <scratch_subdir>  (44) 
/opt/xchem-fragalysis-2/maxwin/BulkDock/SCRATCH/350558/C495-P13

>  <name>  (44) 
IOOBSWUQFSORJH-PGUFJCEWSA-N

>  <energy_score>  (44) 
-72.530183

>  <fragmenstein_error>  (44) 
None

>  <csv_name>  (44) 
D68EV3C_iter1_fstein_split1000_batch000.csv

>  <fragmenstein_mode>  (44) 
expansion

>  <HIPPO Compound ID>  (44) 
495

>  <HIPPO Pose ID>  (44) 
501

>  <ref_mols>  (44) 
7gp9-a,B0875a

>  <fragmenstein_runtime>  (44) 
4.986634

>  <fragmenstein_outcome>  (44) 
acceptable

>  <distance_score>  (44) 
0.54949

>  <score_inspiration>  (44) 
0.79272

>  <original ID>  (44) 
IOOBSWUQFSORJH-PGUFJCEWSA-N

>  <ref_pdb>  (44) 
7gp9-a

>  <alias>  (44) 
None

$$$$
504
     RDKit          3D

 35 39  0  0  0  0  0  0  0  0999 V2000
   -2.3719   -0.1092   31.7342 C   0  0  0  0  0  0  0  0  0  0  0  0
   -1.0041   -0.6163   32.0904 C   0  0  0  0  0  0  0  0  0  0  0  0
   -0.7184   -2.2887   31.5924 S   0  0  2  0  0  0  0  0  0  0  0  0
   -1.8352   -3.1126   32.0082 O   0  0  0  0  0  0  0  0  0  0  0  0
    0.7483   -2.5794   31.9396 N   0  0  0  0  0  0  0  0  0  0  0  0
    1.0548   -3.5228   33.0345 C   0  0  0  0  0  0  0  0  0  0  0  0
    0.6055   -4.8968   32.6282 C   0  0  0  0  0  0  0  0  0  0  0  0
    0.8711   -5.2376   31.2276 C   0  0  0  0  0  0  0  0  0  0  0  0
    0.2856   -6.2781   30.6350 C   0  0  0  0  0  0  0  0  0  0  0  0
   -0.5501   -7.1252   31.3781 C   0  0  0  0  0  0  0  0  0  0  0  0
   -1.2990   -8.1398   31.0295 N   0  0  0  0  0  0  0  0  0  0  0  0
   -1.8852   -8.6153   32.1683 N   0  0  0  0  0  0  0  0  0  0  0  0
   -1.4568   -7.9000   33.1867 C   0  0  0  0  0  0  0  0  0  0  0  0
   -0.6264   -6.9102   32.7417 N   0  0  0  0  0  0  0  0  0  0  0  0
   -0.0426   -5.8073   33.3882 C   0  0  0  0  0  0  0  0  0  0  0  0
   -0.0748   -5.7468   34.7453 N   0  0  0  0  0  0  0  0  0  0  0  0
    0.4879   -6.7390   35.8163 C   0  0  0  0  0  0  0  0  0  0  0  0
    1.1112   -7.6869   35.6870 O   0  0  0  0  0  0  0  0  0  0  0  0
   -0.0509   -6.0562   37.1125 N   0  0  0  0  0  0  0  0  0  0  0  0
    0.0066   -6.4620   38.4123 C   0  0  0  0  0  0  0  0  0  0  0  0
    0.5923   -7.6305   38.9425 C   0  0  0  0  0  0  0  0  0  0  0  0
    0.4697   -7.6967   40.2724 N   0  0  0  0  0  0  0  0  0  0  0  0
   -0.2327   -6.5938   40.5772 N   0  0  0  0  0  0  0  0  0  0  0  0
   -0.5195   -5.8080   39.4953 C   0  0  0  0  0  0  0  0  0  0  0  0
   -0.8035   -2.4313   29.9275 N   0  0  0  0  0  0  0  0  0  0  0  0
    0.2580   -2.0910   29.0039 C   0  0  0  0  0  0  0  0  0  0  0  0
    0.0839   -0.7024   28.4472 C   0  0  0  0  0  0  0  0  0  0  0  0
    0.8977    0.3650   28.8762 C   0  0  0  0  0  0  0  0  0  0  0  0
    0.7140    1.6559   28.3672 C   0  0  0  0  0  0  0  0  0  0  0  0
   -0.2912    1.8530   27.4450 C   0  0  0  0  0  0  0  0  0  0  0  0
   -1.0832    0.8221   27.0164 C   0  0  0  0  0  0  0  0  0  0  0  0
   -0.9137   -0.4622   27.4908 C   0  0  0  0  0  0  0  0  0  0  0  0
   -2.0081    1.2294   26.1066 O   0  0  0  0  0  0  0  0  0  0  0  0
   -1.7065    2.6324   26.0037 C   0  0  0  0  0  0  0  0  0  0  0  0
   -0.6230    3.0377   26.8668 O   0  0  0  0  0  0  0  0  0  0  0  0
  1  2  1  0
  3  2  1  6
  3  4  2  0
  3  5  2  0
  5  6  1  0
  6  7  1  0
  7  8  1  0
  8  9  2  0
  9 10  1  0
 10 11  2  0
 11 12  1  0
 12 13  2  0
 13 14  1  0
 14 15  1  0
 15 16  1  0
 16 17  1  0
 17 18  2  0
 17 19  1  0
 19 20  1  0
 20 21  1  0
 21 22  2  0
 22 23  1  0
 23 24  1  0
  3 25  1  0
 25 26  1  0
 26 27  1  0
 27 28  2  0
 28 29  1  0
 29 30  2  0
 30 31  1  0
 31 32  2  0
 31 33  1  0
 33 34  1  0
 34 35  1  0
 15  7  2  0
 24 20  2  0
 32 27  1  0
 14 10  1  0
 35 30  1  0
M  END
>  <SLURM_JOB_ID>  (45) 
350558

>  <original SMILES>  (45) 
CC[S@](=O)(=NCc1ccc2nncn2c1NC(=O)Nc1cn[nH]c1)NCc1ccc2c(c1)OCO2

>  <tags>  (45) 
Fragmenstein placed

>  <inchikey>  (45) 
IOOBSWUQFSORJH-PGUFJCEWSA-N

>  <scratch_subdir>  (45) 
/opt/xchem-fragalysis-2/maxwin/BulkDock/SCRATCH/350558/C495-P158

>  <name>  (45) 
IOOBSWUQFSORJH-PGUFJCEWSA-N

>  <energy_score>  (45) 
-70.208766

>  <fragmenstein_error>  (45) 
None

>  <csv_name>  (45) 
D68EV3C_iter1_fstein_split1000_batch000.csv

>  <fragmenstein_mode>  (45) 
expansion

>  <HIPPO Compound ID>  (45) 
495

>  <HIPPO Pose ID>  (45) 
504

>  <ref_mols>  (45) 
7gp9-a,B0875a

>  <fragmenstein_runtime>  (45) 
4.492157

>  <fragmenstein_outcome>  (45) 
acceptable

>  <distance_score>  (45) 
0.625207

>  <score_inspiration>  (45) 
0.762089

>  <original ID>  (45) 
IOOBSWUQFSORJH-PGUFJCEWSA-N

>  <ref_pdb>  (45) 
B0875a

>  <alias>  (45) 
None

$$$$
509
     RDKit          3D

 36 41  0  0  0  0  0  0  0  0999 V2000
    5.9028    3.1337   27.6369 C   0  0  0  0  0  0  0  0  0  0  0  0
    4.7857    4.0912   27.3666 C   0  0  0  0  0  0  0  0  0  0  0  0
    5.0272    5.4617   27.3831 C   0  0  0  0  0  0  0  0  0  0  0  0
    3.9518    6.3301   27.2701 C   0  0  0  0  0  0  0  0  0  0  0  0
    2.6740    5.8039   27.1643 C   0  0  0  0  0  0  0  0  0  0  0  0
    2.5256    4.4246   27.1146 C   0  0  0  0  0  0  0  0  0  0  0  0
    1.2862    3.8857   26.8778 N   0  0  0  0  0  0  0  0  0  0  0  0
   -0.1130    4.5422   26.8911 C   0  0  0  0  0  0  0  0  0  0  0  0
   -0.4376    5.6252   27.1807 O   0  0  0  0  0  0  0  0  0  0  0  0
   -1.0776    3.5131   26.3264 C   0  0  2  0  0  0  0  0  0  0  0  0
   -2.5360    3.8431   26.5497 C   0  0  0  0  0  0  0  0  0  0  0  0
   -3.2685    2.5368   26.3551 C   0  0  0  0  0  0  0  0  0  0  0  0
   -2.1593    1.5608   26.0490 C   0  0  0  0  0  0  0  0  0  0  0  0
   -0.9080    2.0729   26.6546 N   0  0  0  0  0  0  0  0  0  0  0  0
   -0.9065    1.7519   28.0982 C   0  0  0  0  0  0  0  0  0  0  0  0
   -1.2047    0.3592   28.3618 O   0  0  0  0  0  0  0  0  0  0  0  0
   -0.1850   -0.5083   28.6462 C   0  0  0  0  0  0  0  0  0  0  0  0
    1.1280   -0.3489   28.2066 C   0  0  0  0  0  0  0  0  0  0  0  0
    2.1360   -1.2455   28.5852 C   0  0  0  0  0  0  0  0  0  0  0  0
    1.7664   -2.2940   29.4291 C   0  0  0  0  0  0  0  0  0  0  0  0
    2.4926   -3.2765   30.0435 N   0  0  0  0  0  0  0  0  0  0  0  0
    1.6457   -3.9997   30.8341 C   0  0  0  0  0  0  0  0  0  0  0  0
    2.3383   -5.2122   31.8433 S   0  0  0  0  0  0  0  0  0  0  0  0
    0.9632   -5.8038   32.7137 C   0  0  0  0  0  0  0  0  0  0  0  0
    0.8618   -5.5913   34.0437 C   0  0  0  0  0  0  0  0  0  0  0  0
   -0.1876   -6.2549   34.8058 C   0  0  0  0  0  0  0  0  0  0  0  0
   -1.0378   -7.1186   34.2209 C   0  0  0  0  0  0  0  0  0  0  0  0
   -0.9457   -7.3514   32.8229 C   0  0  0  0  0  0  0  0  0  0  0  0
   -1.6128   -8.1375   32.0050 N   0  0  0  0  0  0  0  0  0  0  0  0
   -1.0938   -7.9792   30.7441 N   0  0  0  0  0  0  0  0  0  0  0  0
   -0.1236   -7.0981   30.8245 C   0  0  0  0  0  0  0  0  0  0  0  0
    0.0363   -6.6699   32.1156 N   0  0  0  0  0  0  0  0  0  0  0  0
    0.3994   -3.6163   30.7031 N   0  0  0  0  0  0  0  0  0  0  0  0
    0.4607   -2.5186   29.8549 C   0  0  0  0  0  0  0  0  0  0  0  0
   -0.5379   -1.6256   29.4300 C   0  0  0  0  0  0  0  0  0  0  0  0
    3.5522    3.5621   27.1991 N   0  0  0  0  0  0  0  0  0  0  0  0
  1  2  1  0
  2  3  2  0
  3  4  1  0
  4  5  2  0
  5  6  1  0
  6  7  1  0
  7  8  1  0
  8  9  2  0
 10  8  1  1
 10 11  1  0
 11 12  1  0
 12 13  1  0
 13 14  1  0
 14 15  1  0
 15 16  1  0
 16 17  1  0
 17 18  2  0
 18 19  1  0
 19 20  2  0
 20 21  1  0
 21 22  1  0
 22 23  1  0
 23 24  1  0
 24 25  2  0
 25 26  1  0
 26 27  2  0
 27 28  1  0
 28 29  2  0
 29 30  1  0
 30 31  2  0
 31 32  1  0
 22 33  2  0
 33 34  1  0
 34 35  2  0
  6 36  2  0
 36  2  1  0
 14 10  1  0
 35 17  1  0
 34 20  1  0
 32 24  1  0
 32 28  1  0
M  END
>  <SLURM_JOB_ID>  (46) 
350559

>  <original SMILES>  (46) 
Cc1cccc(NC(=O)[C@@H]2CCCN2COc2ccc3[nH]c(Sc4cccc5nncn45)nc3c2)n1

>  <tags>  (46) 
Fragmenstein placed

>  <inchikey>  (46) 
HJOQAPPBMNRIHP-FQEVSTJZSA-N

>  <scratch_subdir>  (46) 
/opt/xchem-fragalysis-2/maxwin/BulkDock/SCRATCH/350559/C182-P180

>  <name>  (46) 
HJOQAPPBMNRIHP-FQEVSTJZSA-N

>  <energy_score>  (46) 
-34.790219

>  <fragmenstein_error>  (46) 
None

>  <csv_name>  (46) 
D68EV3C_iter1_fstein_split1000_batch001.csv

>  <fragmenstein_mode>  (46) 
expansion

>  <HIPPO Compound ID>  (46) 
182

>  <HIPPO Pose ID>  (46) 
509

>  <ref_mols>  (46) 
7gpf-a,B1219a

>  <fragmenstein_runtime>  (46) 
6.839565

>  <fragmenstein_outcome>  (46) 
acceptable

>  <distance_score>  (46) 
0.722813

>  <score_inspiration>  (46) 
0.74708

>  <original ID>  (46) 
HJOQAPPBMNRIHP-FQEVSTJZSA-N

>  <ref_pdb>  (46) 
B1219a

>  <alias>  (46) 
None

$$$$
515
     RDKit          3D

 34 38  0  0  0  0  0  0  0  0999 V2000
   -2.2970   -0.5954   31.7311 C   0  0  0  0  0  0  0  0  0  0  0  0
   -0.8436   -0.9851   31.8431 C   0  0  0  0  0  0  0  0  0  0  0  0
   -0.5351   -2.6361   31.2926 S   0  0  2  0  0  0  0  0  0  0  0  0
   -1.4837   -3.5038   31.9594 O   0  0  0  0  0  0  0  0  0  0  0  0
    0.9844   -2.8309   31.2167 N   0  0  0  0  0  0  0  0  0  0  0  0
    1.7248   -3.6182   32.1913 C   0  0  0  0  0  0  0  0  0  0  0  0
    1.1557   -5.0061   32.3333 C   0  0  0  0  0  0  0  0  0  0  0  0
    0.8182   -5.4078   33.6969 C   0  0  0  0  0  0  0  0  0  0  0  0
   -0.0454   -6.4178   33.9125 C   0  0  0  0  0  0  0  0  0  0  0  0
   -0.5767   -6.8803   35.5048 S   0  0  0  0  0  0  0  0  0  0  0  0
    0.7310   -6.2644   36.6075 C   0  0  0  0  0  0  0  0  0  0  0  0
    0.4848   -6.6438   38.0422 C   0  0  0  0  0  0  0  0  0  0  0  0
    0.8186   -7.9156   38.5178 C   0  0  0  0  0  0  0  0  0  0  0  0
    0.5677   -8.2134   39.8478 C   0  0  0  0  0  0  0  0  0  0  0  0
    0.0172   -7.3431   40.7199 N   0  0  0  0  0  0  0  0  0  0  0  0
   -0.3068   -6.1235   40.2424 C   0  0  0  0  0  0  0  0  0  0  0  0
   -0.0977   -5.7326   38.9299 C   0  0  0  0  0  0  0  0  0  0  0  0
   -0.5444   -7.0847   32.7782 N   0  0  0  0  0  0  0  0  0  0  0  0
   -1.5046   -8.0431   32.6257 C   0  0  0  0  0  0  0  0  0  0  0  0
   -1.5987   -8.4216   31.3725 N   0  0  0  0  0  0  0  0  0  0  0  0
   -0.7273   -7.6537   30.6444 N   0  0  0  0  0  0  0  0  0  0  0  0
   -0.1188   -6.8382   31.4796 C   0  0  0  0  0  0  0  0  0  0  0  0
    0.7679   -5.7535   31.2745 C   0  0  0  0  0  0  0  0  0  0  0  0
   -0.9694   -2.8154   29.7052 N   0  0  0  0  0  0  0  0  0  0  0  0
   -0.1979   -2.3556   28.5807 C   0  0  0  0  0  0  0  0  0  0  0  0
   -0.4337   -0.9077   28.2452 C   0  0  0  0  0  0  0  0  0  0  0  0
    0.5429    0.0719   28.5308 C   0  0  0  0  0  0  0  0  0  0  0  0
    0.3459    1.4074   28.1650 C   0  0  0  0  0  0  0  0  0  0  0  0
   -0.8278    1.7293   27.5180 C   0  0  0  0  0  0  0  0  0  0  0  0
   -1.7857    0.7852   27.2453 C   0  0  0  0  0  0  0  0  0  0  0  0
   -1.6234   -0.5339   27.6012 C   0  0  0  0  0  0  0  0  0  0  0  0
   -2.8511    1.3024   26.5808 O   0  0  0  0  0  0  0  0  0  0  0  0
   -2.4864    2.6934   26.5162 C   0  0  0  0  0  0  0  0  0  0  0  0
   -1.1739    2.9622   27.0617 O   0  0  0  0  0  0  0  0  0  0  0  0
  1  2  1  0
  3  2  1  1
  3  4  2  0
  3  5  2  0
  5  6  1  0
  6  7  1  0
  7  8  1  0
  8  9  2  0
  9 10  1  0
 10 11  1  0
 11 12  1  0
 12 13  2  0
 13 14  1  0
 14 15  2  0
 15 16  1  0
 16 17  2  0
  9 18  1  0
 18 19  1  0
 19 20  2  0
 20 21  1  0
 21 22  2  0
 22 23  1  0
  3 24  1  0
 24 25  1  0
 25 26  1  0
 26 27  2  0
 27 28  1  0
 28 29  2  0
 29 30  1  0
 30 31  2  0
 30 32  1  0
 32 33  1  0
 33 34  1  0
 23  7  2  0
 31 26  1  0
 17 12  1  0
 22 18  1  0
 34 29  1  0
M  END
>  <SLURM_JOB_ID>  (47) 
350558

>  <original SMILES>  (47) 
CC[S@](=O)(=NCc1cc(SCc2ccncc2)n2cnnc2c1)NCc1ccc2c(c1)OCO2

>  <tags>  (47) 
Fragmenstein placed

>  <inchikey>  (47) 
AFAIYXZRJDCNKK-UUWRZZSWSA-N

>  <scratch_subdir>  (47) 
/opt/xchem-fragalysis-2/maxwin/BulkDock/SCRATCH/350558/C497-P13

>  <name>  (47) 
AFAIYXZRJDCNKK-UUWRZZSWSA-N

>  <energy_score>  (47) 
-46.674661

>  <fragmenstein_error>  (47) 
None

>  <csv_name>  (47) 
D68EV3C_iter1_fstein_split1000_batch000.csv

>  <fragmenstein_mode>  (47) 
expansion

>  <HIPPO Compound ID>  (47) 
497

>  <HIPPO Pose ID>  (47) 
515

>  <ref_mols>  (47) 
7gp9-a,B0931a

>  <fragmenstein_runtime>  (47) 
3.774323

>  <fragmenstein_outcome>  (47) 
acceptable

>  <distance_score>  (47) 
0.378756

>  <score_inspiration>  (47) 
0.873845

>  <original ID>  (47) 
AFAIYXZRJDCNKK-UUWRZZSWSA-N

>  <ref_pdb>  (47) 
7gp9-a

>  <alias>  (47) 
None

$$$$
521
     RDKit          3D

 35 39  0  0  0  0  0  0  0  0999 V2000
    5.0561    5.5833   28.4787 C   0  0  0  0  0  0  0  0  0  0  0  0
    4.9710    4.1763   27.9314 C   0  0  0  0  0  0  0  0  0  0  0  0
    3.8796    4.0302   26.8812 C   0  0  0  0  0  0  0  0  0  0  0  0
    4.1122    3.8047   25.7599 O   0  0  0  0  0  0  0  0  0  0  0  0
    2.5238    4.1345   27.6237 N   0  0  0  0  0  0  0  0  0  0  0  0
    1.2159    4.0784   27.1364 C   0  0  0  0  0  0  0  0  0  0  0  0
    0.2098    4.3204   28.0798 C   0  0  0  0  0  0  0  0  0  0  0  0
   -1.1206    4.0644   27.7702 C   0  0  0  0  0  0  0  0  0  0  0  0
   -1.4572    3.5484   26.5207 C   0  0  0  0  0  0  0  0  0  0  0  0
   -2.7710    2.8491   26.3483 C   0  0  0  0  0  0  0  0  0  0  0  0
   -2.5407    1.3456   26.5007 C   0  0  0  0  0  0  0  0  0  0  0  0
   -1.8255    0.9050   27.7854 C   0  0  0  0  0  0  0  0  0  0  0  0
   -1.8004   -0.5254   27.8485 O   0  0  0  0  0  0  0  0  0  0  0  0
   -0.6791   -1.0938   28.3951 C   0  0  0  0  0  0  0  0  0  0  0  0
    0.6238   -0.6979   28.0780 C   0  0  0  0  0  0  0  0  0  0  0  0
    1.7393   -1.3384   28.6311 C   0  0  0  0  0  0  0  0  0  0  0  0
    1.4820   -2.3924   29.5063 C   0  0  0  0  0  0  0  0  0  0  0  0
    2.3092   -3.2136   30.2224 N   0  0  0  0  0  0  0  0  0  0  0  0
    1.5299   -4.0725   30.9404 C   0  0  0  0  0  0  0  0  0  0  0  0
    2.3086   -5.2242   31.9561 S   0  0  0  0  0  0  0  0  0  0  0  0
    0.9617   -5.8693   32.8346 C   0  0  0  0  0  0  0  0  0  0  0  0
    0.8821   -5.6791   34.1692 C   0  0  0  0  0  0  0  0  0  0  0  0
   -0.1623   -6.3433   34.9339 C   0  0  0  0  0  0  0  0  0  0  0  0
   -1.0394   -7.1738   34.3423 C   0  0  0  0  0  0  0  0  0  0  0  0
   -0.9767   -7.3794   32.9388 C   0  0  0  0  0  0  0  0  0  0  0  0
   -1.6871   -8.1227   32.1161 N   0  0  0  0  0  0  0  0  0  0  0  0
   -1.1855   -7.9521   30.8505 N   0  0  0  0  0  0  0  0  0  0  0  0
   -0.1766   -7.1154   30.9370 C   0  0  0  0  0  0  0  0  0  0  0  0
    0.0134   -6.7116   32.2318 N   0  0  0  0  0  0  0  0  0  0  0  0
    0.2522   -3.8921   30.7153 N   0  0  0  0  0  0  0  0  0  0  0  0
    0.2002   -2.8353   29.8243 C   0  0  0  0  0  0  0  0  0  0  0  0
   -0.9006   -2.1883   29.2436 C   0  0  0  0  0  0  0  0  0  0  0  0
   -0.4837    3.4520   25.5287 C   0  0  0  0  0  0  0  0  0  0  0  0
    0.8500    3.6969   25.8386 C   0  0  0  0  0  0  0  0  0  0  0  0
    1.7071    3.4473   24.8083 O   0  0  0  0  0  0  0  0  0  0  0  0
  1  2  1  0
  2  3  1  0
  3  4  2  0
  3  5  1  0
  5  6  1  0
  6  7  2  0
  7  8  1  0
  8  9  2  0
  9 10  1  0
 10 11  1  0
 11 12  1  0
 12 13  1  0
 13 14  1  0
 14 15  2  0
 15 16  1  0
 16 17  2  0
 17 18  1  0
 18 19  1  0
 19 20  1  0
 20 21  1  0
 21 22  2  0
 22 23  1  0
 23 24  2  0
 24 25  1  0
 25 26  2  0
 26 27  1  0
 27 28  2  0
 28 29  1  0
 19 30  2  0
 30 31  1  0
 31 32  2  0
  9 33  1  0
 33 34  2  0
 34 35  1  0
 34  6  1  0
 32 14  1  0
 31 17  1  0
 29 21  1  0
 29 25  1  0
M  END
>  <SLURM_JOB_ID>  (48) 
350559

>  <original SMILES>  (48) 
CCC(=O)Nc1ccc(CCCOc2ccc3[nH]c(Sc4cccc5nncn45)nc3c2)cc1O

>  <tags>  (48) 
Fragmenstein placed

>  <inchikey>  (48) 
IHDDRMQNJACOMO-UHFFFAOYSA-N

>  <scratch_subdir>  (48) 
/opt/xchem-fragalysis-2/maxwin/BulkDock/SCRATCH/350559/C183-P57

>  <name>  (48) 
IHDDRMQNJACOMO-UHFFFAOYSA-N

>  <energy_score>  (48) 
-53.503397

>  <fragmenstein_error>  (48) 
None

>  <csv_name>  (48) 
D68EV3C_iter1_fstein_split1000_batch001.csv

>  <fragmenstein_mode>  (48) 
expansion

>  <HIPPO Compound ID>  (48) 
183

>  <HIPPO Pose ID>  (48) 
521

>  <ref_mols>  (48) 
7gox-a,B1219a

>  <fragmenstein_runtime>  (48) 
5.913156

>  <fragmenstein_outcome>  (48) 
acceptable

>  <distance_score>  (48) 
0.861159

>  <score_inspiration>  (48) 
0.730158

>  <original ID>  (48) 
IHDDRMQNJACOMO-UHFFFAOYSA-N

>  <ref_pdb>  (48) 
7gox-a

>  <alias>  (48) 
None

$$$$
522
     RDKit          3D

 34 38  0  0  0  0  0  0  0  0999 V2000
   -2.0791   -0.3951   31.8372 C   0  0  0  0  0  0  0  0  0  0  0  0
   -0.6754   -0.9105   32.0313 C   0  0  0  0  0  0  0  0  0  0  0  0
   -0.4504   -2.5595   31.4340 S   0  0  2  0  0  0  0  0  0  0  0  0
   -1.4719   -3.3982   32.0252 O   0  0  0  0  0  0  0  0  0  0  0  0
    1.0557   -2.8394   31.3881 N   0  0  0  0  0  0  0  0  0  0  0  0
    1.7353   -3.6542   32.3776 C   0  0  0  0  0  0  0  0  0  0  0  0
    1.1432   -5.0370   32.4587 C   0  0  0  0  0  0  0  0  0  0  0  0
    0.8626   -5.5066   33.8113 C   0  0  0  0  0  0  0  0  0  0  0  0
   -0.0077   -6.5125   34.0149 C   0  0  0  0  0  0  0  0  0  0  0  0
   -0.4720   -7.0599   35.5993 S   0  0  0  0  0  0  0  0  0  0  0  0
    0.6724   -6.2153   36.7331 C   0  0  0  0  0  0  0  0  0  0  0  0
    0.4160   -6.5647   38.1722 C   0  0  0  0  0  0  0  0  0  0  0  0
    0.7774   -7.8123   38.6879 C   0  0  0  0  0  0  0  0  0  0  0  0
    0.5014   -8.0931   40.0165 C   0  0  0  0  0  0  0  0  0  0  0  0
   -0.0808   -7.2139   40.8593 N   0  0  0  0  0  0  0  0  0  0  0  0
   -0.4210   -6.0132   40.3473 C   0  0  0  0  0  0  0  0  0  0  0  0
   -0.2003   -5.6477   39.0291 C   0  0  0  0  0  0  0  0  0  0  0  0
   -0.5540   -7.1256   32.8716 N   0  0  0  0  0  0  0  0  0  0  0  0
   -1.5075   -8.0916   32.7143 C   0  0  0  0  0  0  0  0  0  0  0  0
   -1.6558   -8.4015   31.4469 N   0  0  0  0  0  0  0  0  0  0  0  0
   -0.8151   -7.5973   30.7222 N   0  0  0  0  0  0  0  0  0  0  0  0
   -0.1778   -6.8187   31.5705 C   0  0  0  0  0  0  0  0  0  0  0  0
    0.7043   -5.7278   31.3817 C   0  0  0  0  0  0  0  0  0  0  0  0
   -0.8250   -2.6507   29.8259 N   0  0  0  0  0  0  0  0  0  0  0  0
    0.0178   -2.1609   28.7690 C   0  0  0  0  0  0  0  0  0  0  0  0
   -0.2126   -0.7152   28.4282 C   0  0  0  0  0  0  0  0  0  0  0  0
    0.7269    0.2790   28.7707 C   0  0  0  0  0  0  0  0  0  0  0  0
    0.5288    1.6126   28.3937 C   0  0  0  0  0  0  0  0  0  0  0  0
   -0.6081    1.9195   27.6783 C   0  0  0  0  0  0  0  0  0  0  0  0
   -1.5249    0.9590   27.3416 C   0  0  0  0  0  0  0  0  0  0  0  0
   -1.3590   -0.3577   27.7075 C   0  0  0  0  0  0  0  0  0  0  0  0
   -2.5527    1.4580   26.6063 O   0  0  0  0  0  0  0  0  0  0  0  0
   -2.2258    2.8596   26.5902 C   0  0  0  0  0  0  0  0  0  0  0  0
   -0.9502    3.1465   27.2047 O   0  0  0  0  0  0  0  0  0  0  0  0
  1  2  1  0
  3  2  1  1
  3  4  2  0
  3  5  2  0
  5  6  1  0
  6  7  1  0
  7  8  1  0
  8  9  2  0
  9 10  1  0
 10 11  1  0
 11 12  1  0
 12 13  2  0
 13 14  1  0
 14 15  2  0
 15 16  1  0
 16 17  2  0
  9 18  1  0
 18 19  1  0
 19 20  2  0
 20 21  1  0
 21 22  2  0
 22 23  1  0
  3 24  1  0
 24 25  1  0
 25 26  1  0
 26 27  2  0
 27 28  1  0
 28 29  2  0
 29 30  1  0
 30 31  2  0
 30 32  1  0
 32 33  1  0
 33 34  1  0
 23  7  2  0
 31 26  1  0
 17 12  1  0
 22 18  1  0
 34 29  1  0
M  END
>  <SLURM_JOB_ID>  (49) 
350558

>  <original SMILES>  (49) 
CC[S@](=O)(=NCc1cc(SCc2ccncc2)n2cnnc2c1)NCc1ccc2c(c1)OCO2

>  <tags>  (49) 
Fragmenstein placed

>  <inchikey>  (49) 
AFAIYXZRJDCNKK-UUWRZZSWSA-N

>  <scratch_subdir>  (49) 
/opt/xchem-fragalysis-2/maxwin/BulkDock/SCRATCH/350558/C497-P164

>  <name>  (49) 
AFAIYXZRJDCNKK-UUWRZZSWSA-N

>  <energy_score>  (49) 
-45.883031

>  <fragmenstein_error>  (49) 
None

>  <csv_name>  (49) 
D68EV3C_iter1_fstein_split1000_batch000.csv

>  <fragmenstein_mode>  (49) 
expansion

>  <HIPPO Compound ID>  (49) 
497

>  <HIPPO Pose ID>  (49) 
522

>  <ref_mols>  (49) 
7gp9-a,B0931a

>  <fragmenstein_runtime>  (49) 
3.396608

>  <fragmenstein_outcome>  (49) 
acceptable

>  <distance_score>  (49) 
0.47839

>  <score_inspiration>  (49) 
0.831143

>  <original ID>  (49) 
AFAIYXZRJDCNKK-UUWRZZSWSA-N

>  <ref_pdb>  (49) 
B0931a

>  <alias>  (49) 
None

$$$$
526
     RDKit          3D

 36 41  0  0  0  0  0  0  0  0999 V2000
   -1.1143   -0.5414   32.9455 C   0  0  0  0  0  0  0  0  0  0  0  0
   -0.9149   -0.7866   31.4625 C   0  0  0  0  0  0  0  0  0  0  0  0
   -0.9590   -2.5154   31.0735 S   0  0  2  0  0  0  0  0  0  0  0  0
   -2.2610   -3.0387   31.4378 O   0  0  0  0  0  0  0  0  0  0  0  0
    0.3833   -3.1762   31.4675 N   0  0  0  0  0  0  0  0  0  0  0  0
    0.2484   -4.5401   31.9559 C   0  0  0  0  0  0  0  0  0  0  0  0
    0.0081   -4.7456   33.3714 C   0  0  0  0  0  0  0  0  0  0  0  0
   -0.5982   -5.8702   33.7808 C   0  0  0  0  0  0  0  0  0  0  0  0
   -1.0403   -6.0534   35.4355 S   0  0  0  0  0  0  0  0  0  0  0  0
    0.2595   -6.9004   36.2215 C   0  0  0  0  0  0  0  0  0  0  0  0
    0.1968   -7.0252   37.5092 N   0  0  0  0  0  0  0  0  0  0  0  0
    1.2503   -7.7622   38.0608 C   0  0  0  0  0  0  0  0  0  0  0  0
    1.3866   -8.0275   39.4393 C   0  0  0  0  0  0  0  0  0  0  0  0
    2.5063   -8.8007   39.6791 C   0  0  0  0  0  0  0  0  0  0  0  0
    3.3591   -9.1804   38.2301 S   0  0  0  0  0  0  0  0  0  0  0  0
    2.2402   -8.3205   37.3004 C   0  0  0  0  0  0  0  0  0  0  0  0
    2.2747   -8.1737   35.8808 C   0  0  0  0  0  0  0  0  0  0  0  0
    3.0650   -8.6698   35.0796 O   0  0  0  0  0  0  0  0  0  0  0  0
    1.2487   -7.3948   35.4113 N   0  0  0  0  0  0  0  0  0  0  0  0
   -0.9009   -6.8357   32.8133 N   0  0  0  0  0  0  0  0  0  0  0  0
   -1.6021   -8.0004   32.8725 C   0  0  0  0  0  0  0  0  0  0  0  0
   -1.6025   -8.6046   31.7071 N   0  0  0  0  0  0  0  0  0  0  0  0
   -0.9171   -7.8106   30.8268 N   0  0  0  0  0  0  0  0  0  0  0  0
   -0.5182   -6.7427   31.4823 C   0  0  0  0  0  0  0  0  0  0  0  0
    0.0822   -5.5329   31.0589 C   0  0  0  0  0  0  0  0  0  0  0  0
   -0.9285   -2.7490   29.4287 N   0  0  0  0  0  0  0  0  0  0  0  0
    0.0582   -2.1309   28.5794 C   0  0  0  0  0  0  0  0  0  0  0  0
   -0.2855   -0.7188   28.1866 C   0  0  0  0  0  0  0  0  0  0  0  0
    0.6455    0.3243   28.3979 C   0  0  0  0  0  0  0  0  0  0  0  0
    0.3602    1.6331   28.0005 C   0  0  0  0  0  0  0  0  0  0  0  0
   -0.8509    1.8668   27.3882 C   0  0  0  0  0  0  0  0  0  0  0  0
   -1.7593    0.8615   27.1729 C   0  0  0  0  0  0  0  0  0  0  0  0
   -1.5093   -0.4355   27.5578 C   0  0  0  0  0  0  0  0  0  0  0  0
   -2.8719    1.2969   26.5280 O   0  0  0  0  0  0  0  0  0  0  0  0
   -2.5926    2.7054   26.4175 C   0  0  0  0  0  0  0  0  0  0  0  0
   -1.2806    3.0631   26.9085 O   0  0  0  0  0  0  0  0  0  0  0  0
  1  2  1  0
  3  2  1  6
  3  4  2  0
  3  5  2  0
  5  6  1  0
  6  7  1  0
  7  8  2  0
  8  9  1  0
  9 10  1  0
 10 11  2  0
 11 12  1  0
 12 13  1  0
 13 14  2  0
 14 15  1  0
 15 16  1  0
 16 17  1  0
 17 18  2  0
 17 19  1  0
  8 20  1  0
 20 21  1  0
 21 22  2  0
 22 23  1  0
 23 24  2  0
 24 25  1  0
  3 26  1  0
 26 27  1  0
 27 28  1  0
 28 29  2  0
 29 30  1  0
 30 31  2  0
 31 32  1  0
 32 33  2  0
 32 34  1  0
 34 35  1  0
 35 36  1  0
 25  6  2  0
 33 28  1  0
 19 10  1  0
 24 20  1  0
 36 31  1  0
 16 12  2  0
M  END
>  <SLURM_JOB_ID>  (50) 
350558

>  <original SMILES>  (50) 
CC[S@](=O)(=Nc1cc(Sc2nc3ccsc3c(=O)[nH]2)n2cnnc2c1)NCc1ccc2c(c1)OCO2

>  <tags>  (50) 
Fragmenstein placed

>  <inchikey>  (50) 
LBWYGOKNNAPDLB-PSXMRANNSA-N

>  <scratch_subdir>  (50) 
/opt/xchem-fragalysis-2/maxwin/BulkDock/SCRATCH/350558/C498-P13

>  <name>  (50) 
LBWYGOKNNAPDLB-PSXMRANNSA-N

>  <energy_score>  (50) 
-77.83745

>  <fragmenstein_error>  (50) 
None

>  <csv_name>  (50) 
D68EV3C_iter1_fstein_split1000_batch000.csv

>  <fragmenstein_mode>  (50) 
expansion

>  <HIPPO Compound ID>  (50) 
498

>  <HIPPO Pose ID>  (50) 
526

>  <ref_mols>  (50) 
7gp9-a,B0938a

>  <fragmenstein_runtime>  (50) 
2.113418

>  <fragmenstein_outcome>  (50) 
acceptable

>  <distance_score>  (50) 
0.465699

>  <score_inspiration>  (50) 
0.872737

>  <original ID>  (50) 
LBWYGOKNNAPDLB-PSXMRANNSA-N

>  <ref_pdb>  (50) 
7gp9-a

>  <alias>  (50) 
None

$$$$
528
     RDKit          3D

 35 39  0  0  0  0  0  0  0  0999 V2000
    5.2876    5.5653   28.4908 C   0  0  0  0  0  0  0  0  0  0  0  0
    5.2628    4.3155   27.6368 C   0  0  0  0  0  0  0  0  0  0  0  0
    4.1138    4.3017   26.6371 C   0  0  0  0  0  0  0  0  0  0  0  0
    4.2830    4.2612   25.4821 O   0  0  0  0  0  0  0  0  0  0  0  0
    2.8019    4.2471   27.4632 N   0  0  0  0  0  0  0  0  0  0  0  0
    1.4693    4.2277   27.0479 C   0  0  0  0  0  0  0  0  0  0  0  0
    0.5181    4.4357   28.0566 C   0  0  0  0  0  0  0  0  0  0  0  0
   -0.8347    4.2590   27.7977 C   0  0  0  0  0  0  0  0  0  0  0  0
   -1.2446    3.8412   26.5301 C   0  0  0  0  0  0  0  0  0  0  0  0
   -2.5949    3.2200   26.3750 C   0  0  0  0  0  0  0  0  0  0  0  0
   -2.4567    1.7022   26.4792 C   0  0  0  0  0  0  0  0  0  0  0  0
   -1.4968    1.1577   27.5656 C   0  0  0  0  0  0  0  0  0  0  0  0
   -1.5236   -0.2798   27.6369 O   0  0  0  0  0  0  0  0  0  0  0  0
   -0.4563   -0.8895   28.2610 C   0  0  0  0  0  0  0  0  0  0  0  0
    0.8692   -0.4619   28.1288 C   0  0  0  0  0  0  0  0  0  0  0  0
    1.9285   -1.1342   28.7499 C   0  0  0  0  0  0  0  0  0  0  0  0
    1.5998   -2.2467   29.5194 C   0  0  0  0  0  0  0  0  0  0  0  0
    2.3682   -3.0956   30.2651 N   0  0  0  0  0  0  0  0  0  0  0  0
    1.5437   -4.0071   30.8552 C   0  0  0  0  0  0  0  0  0  0  0  0
    2.2755   -5.1854   31.8783 S   0  0  0  0  0  0  0  0  0  0  0  0
    0.9131   -5.8205   32.7354 C   0  0  0  0  0  0  0  0  0  0  0  0
    0.8022   -5.6190   34.0664 C   0  0  0  0  0  0  0  0  0  0  0  0
   -0.2379   -6.3056   34.8195 C   0  0  0  0  0  0  0  0  0  0  0  0
   -1.0726   -7.1764   34.2234 C   0  0  0  0  0  0  0  0  0  0  0  0
   -0.9711   -7.3971   32.8240 C   0  0  0  0  0  0  0  0  0  0  0  0
   -1.6256   -8.1845   31.9978 N   0  0  0  0  0  0  0  0  0  0  0  0
   -1.1002   -8.0145   30.7414 N   0  0  0  0  0  0  0  0  0  0  0  0
   -0.1400   -7.1236   30.8321 C   0  0  0  0  0  0  0  0  0  0  0  0
    0.0052   -6.6985   32.1259 N   0  0  0  0  0  0  0  0  0  0  0  0
    0.2916   -3.8445   30.4994 N   0  0  0  0  0  0  0  0  0  0  0  0
    0.3029   -2.7304   29.6662 C   0  0  0  0  0  0  0  0  0  0  0  0
   -0.7388   -2.0574   28.9968 C   0  0  0  0  0  0  0  0  0  0  0  0
   -0.3200    3.7416   25.4913 C   0  0  0  0  0  0  0  0  0  0  0  0
    1.0331    3.9207   25.7526 C   0  0  0  0  0  0  0  0  0  0  0  0
    1.8397    3.6689   24.6835 O   0  0  0  0  0  0  0  0  0  0  0  0
  1  2  1  0
  2  3  1  0
  3  4  2  0
  3  5  1  0
  5  6  1  0
  6  7  2  0
  7  8  1  0
  8  9  2  0
  9 10  1  0
 10 11  1  0
 11 12  1  0
 12 13  1  0
 13 14  1  0
 14 15  2  0
 15 16  1  0
 16 17  2  0
 17 18  1  0
 18 19  1  0
 19 20  1  0
 20 21  1  0
 21 22  2  0
 22 23  1  0
 23 24  2  0
 24 25  1  0
 25 26  2  0
 26 27  1  0
 27 28  2  0
 28 29  1  0
 19 30  2  0
 30 31  1  0
 31 32  2  0
  9 33  1  0
 33 34  2  0
 34 35  1  0
 34  6  1  0
 32 14  1  0
 31 17  1  0
 29 21  1  0
 29 25  1  0
M  END
>  <SLURM_JOB_ID>  (51) 
350559

>  <original SMILES>  (51) 
CCC(=O)Nc1ccc(CCCOc2ccc3[nH]c(Sc4cccc5nncn45)nc3c2)cc1O

>  <tags>  (51) 
Fragmenstein placed

>  <inchikey>  (51) 
IHDDRMQNJACOMO-UHFFFAOYSA-N

>  <scratch_subdir>  (51) 
/opt/xchem-fragalysis-2/maxwin/BulkDock/SCRATCH/350559/C183-P180

>  <name>  (51) 
IHDDRMQNJACOMO-UHFFFAOYSA-N

>  <energy_score>  (51) 
-49.600962

>  <fragmenstein_error>  (51) 
None

>  <csv_name>  (51) 
D68EV3C_iter1_fstein_split1000_batch001.csv

>  <fragmenstein_mode>  (51) 
expansion

>  <HIPPO Compound ID>  (51) 
183

>  <HIPPO Pose ID>  (51) 
528

>  <ref_mols>  (51) 
7gox-a,B1219a

>  <fragmenstein_runtime>  (51) 
4.61694

>  <fragmenstein_outcome>  (51) 
acceptable

>  <distance_score>  (51) 
0.954738

>  <score_inspiration>  (51) 
0.694439

>  <original ID>  (51) 
IHDDRMQNJACOMO-UHFFFAOYSA-N

>  <ref_pdb>  (51) 
B1219a

>  <alias>  (51) 
None

$$$$
530
     RDKit          3D

 36 41  0  0  0  0  0  0  0  0999 V2000
   -1.1258   -0.6172   33.0430 C   0  0  0  0  0  0  0  0  0  0  0  0
   -0.8853   -0.8229   31.5603 C   0  0  0  0  0  0  0  0  0  0  0  0
   -0.9886   -2.5357   31.1096 S   0  0  2  0  0  0  0  0  0  0  0  0
   -2.3263   -3.0119   31.3996 O   0  0  0  0  0  0  0  0  0  0  0  0
    0.3039   -3.2723   31.5284 N   0  0  0  0  0  0  0  0  0  0  0  0
    0.0912   -4.6225   32.0277 C   0  0  0  0  0  0  0  0  0  0  0  0
   -0.1683   -4.8063   33.4414 C   0  0  0  0  0  0  0  0  0  0  0  0
   -0.7537   -5.9352   33.8705 C   0  0  0  0  0  0  0  0  0  0  0  0
   -1.1853   -6.0916   35.5274 S   0  0  0  0  0  0  0  0  0  0  0  0
    0.1621   -6.8412   36.3353 C   0  0  0  0  0  0  0  0  0  0  0  0
    0.1662   -6.8428   37.6302 N   0  0  0  0  0  0  0  0  0  0  0  0
    1.2544   -7.5221   38.1914 C   0  0  0  0  0  0  0  0  0  0  0  0
    1.4380   -7.7011   39.5781 C   0  0  0  0  0  0  0  0  0  0  0  0
    2.5877   -8.4246   39.8302 C   0  0  0  0  0  0  0  0  0  0  0  0
    3.4199   -8.8510   38.3833 S   0  0  0  0  0  0  0  0  0  0  0  0
    2.2333   -8.1068   37.4365 C   0  0  0  0  0  0  0  0  0  0  0  0
    2.1984   -8.0816   36.0098 C   0  0  0  0  0  0  0  0  0  0  0  0
    2.9732   -8.6086   35.2125 O   0  0  0  0  0  0  0  0  0  0  0  0
    1.1215   -7.3881   35.5249 N   0  0  0  0  0  0  0  0  0  0  0  0
   -1.0363   -6.9314   32.9269 N   0  0  0  0  0  0  0  0  0  0  0  0
   -1.6646   -8.1401   33.0204 C   0  0  0  0  0  0  0  0  0  0  0  0
   -1.6715   -8.7392   31.8505 N   0  0  0  0  0  0  0  0  0  0  0  0
   -1.0482   -7.9197   30.9469 N   0  0  0  0  0  0  0  0  0  0  0  0
   -0.6714   -6.8372   31.5886 C   0  0  0  0  0  0  0  0  0  0  0  0
   -0.0838   -5.6263   31.1457 C   0  0  0  0  0  0  0  0  0  0  0  0
   -0.8900   -2.7023   29.4587 N   0  0  0  0  0  0  0  0  0  0  0  0
    0.1335   -2.0431   28.6872 C   0  0  0  0  0  0  0  0  0  0  0  0
   -0.2297   -0.6453   28.2594 C   0  0  0  0  0  0  0  0  0  0  0  0
    0.6524    0.4279   28.5220 C   0  0  0  0  0  0  0  0  0  0  0  0
    0.3652    1.7214   28.0767 C   0  0  0  0  0  0  0  0  0  0  0  0
   -0.7949    1.9107   27.3597 C   0  0  0  0  0  0  0  0  0  0  0  0
   -1.6537    0.8763   27.0912 C   0  0  0  0  0  0  0  0  0  0  0  0
   -1.4071   -0.4048   27.5323 C   0  0  0  0  0  0  0  0  0  0  0  0
   -2.7130    1.2648   26.3344 O   0  0  0  0  0  0  0  0  0  0  0  0
   -2.4543    2.6764   26.2010 C   0  0  0  0  0  0  0  0  0  0  0  0
   -1.2115    3.0839   26.8161 O   0  0  0  0  0  0  0  0  0  0  0  0
  1  2  1  0
  3  2  1  6
  3  4  2  0
  3  5  2  0
  5  6  1  0
  6  7  1  0
  7  8  2  0
  8  9  1  0
  9 10  1  0
 10 11  2  0
 11 12  1  0
 12 13  1  0
 13 14  2  0
 14 15  1  0
 15 16  1  0
 16 17  1  0
 17 18  2  0
 17 19  1  0
  8 20  1  0
 20 21  1  0
 21 22  2  0
 22 23  1  0
 23 24  2  0
 24 25  1  0
  3 26  1  0
 26 27  1  0
 27 28  1  0
 28 29  2  0
 29 30  1  0
 30 31  2  0
 31 32  1  0
 32 33  2  0
 32 34  1  0
 34 35  1  0
 35 36  1  0
 25  6  2  0
 33 28  1  0
 19 10  1  0
 24 20  1  0
 36 31  1  0
 16 12  2  0
M  END
>  <SLURM_JOB_ID>  (52) 
350558

>  <original SMILES>  (52) 
CC[S@](=O)(=Nc1cc(Sc2nc3ccsc3c(=O)[nH]2)n2cnnc2c1)NCc1ccc2c(c1)OCO2

>  <tags>  (52) 
Fragmenstein placed

>  <inchikey>  (52) 
LBWYGOKNNAPDLB-PSXMRANNSA-N

>  <scratch_subdir>  (52) 
/opt/xchem-fragalysis-2/maxwin/BulkDock/SCRATCH/350558/C498-P166

>  <name>  (52) 
LBWYGOKNNAPDLB-PSXMRANNSA-N

>  <energy_score>  (52) 
-79.398826

>  <fragmenstein_error>  (52) 
None

>  <csv_name>  (52) 
D68EV3C_iter1_fstein_split1000_batch000.csv

>  <fragmenstein_mode>  (52) 
expansion

>  <HIPPO Compound ID>  (52) 
498

>  <HIPPO Pose ID>  (52) 
530

>  <ref_mols>  (52) 
7gp9-a,B0938a

>  <fragmenstein_runtime>  (52) 
2.42071

>  <fragmenstein_outcome>  (52) 
acceptable

>  <distance_score>  (52) 
0.48304

>  <score_inspiration>  (52) 
0.864434

>  <original ID>  (52) 
LBWYGOKNNAPDLB-PSXMRANNSA-N

>  <ref_pdb>  (52) 
B0938a

>  <alias>  (52) 
None

$$$$
545
     RDKit          3D

 35 39  0  0  0  0  0  0  0  0999 V2000
   -1.7900   -0.5719   31.8817 C   0  0  0  0  0  0  0  0  0  0  0  0
   -0.5694   -1.4681   31.9916 C   0  0  0  0  0  0  0  0  0  0  0  0
   -0.8156   -3.0557   31.2237 S   0  0  2  0  0  0  0  0  0  0  0  0
   -2.0364   -3.6328   31.7416 O   0  0  0  0  0  0  0  0  0  0  0  0
    0.5043   -3.7992   31.0829 N   0  0  0  0  0  0  0  0  0  0  0  0
    1.3198   -4.3686   32.1447 C   0  0  0  0  0  0  0  0  0  0  0  0
    0.7608   -5.5075   32.9917 C   0  0  1  0  0  0  0  0  0  0  0  0
   -0.0027   -4.9872   34.2288 C   0  0  0  0  0  0  0  0  0  0  0  0
   -0.3467   -6.0890   35.1941 N   0  0  0  0  0  0  0  0  0  0  0  0
    0.6174   -6.2364   36.5547 S   0  0  0  0  0  0  0  0  0  0  0  0
    1.9948   -6.2292   36.1203 O   0  0  0  0  0  0  0  0  0  0  0  0
    0.0885   -7.2805   37.3976 O   0  0  0  0  0  0  0  0  0  0  0  0
    0.2720   -4.7590   37.2796 N   0  0  0  0  0  0  0  0  0  0  0  0
    1.2354   -4.3447   38.3444 C   0  0  0  0  0  0  0  0  0  0  0  0
    0.6466   -3.2240   39.2356 C   0  0  0  0  0  0  0  0  0  0  0  0
   -0.2817   -2.3342   38.5126 N   0  0  0  0  0  0  0  0  0  0  0  0
   -1.4343   -3.1224   38.0263 C   0  0  0  0  0  0  0  0  0  0  0  0
   -1.1362   -4.6063   37.7377 C   0  0  0  0  0  0  0  0  0  0  0  0
   -0.9259   -7.3490   34.6618 C   0  0  0  0  0  0  0  0  0  0  0  0
   -0.8600   -7.3570   33.1926 C   0  0  0  0  0  0  0  0  0  0  0  0
   -1.5386   -8.1551   32.3317 N   0  0  0  0  0  0  0  0  0  0  0  0
   -1.1832   -7.8898   31.0610 N   0  0  0  0  0  0  0  0  0  0  0  0
   -0.2811   -6.9061   31.0868 N   0  0  0  0  0  0  0  0  0  0  0  0
   -0.0929   -6.5556   32.3862 C   0  0  0  0  0  0  0  0  0  0  0  0
   -1.1719   -2.7597   29.6149 N   0  0  0  0  0  0  0  0  0  0  0  0
   -0.1606   -2.2524   28.7020 C   0  0  0  0  0  0  0  0  0  0  0  0
   -0.4197   -0.8228   28.3032 C   0  0  0  0  0  0  0  0  0  0  0  0
    0.5377    0.1855   28.5568 C   0  0  0  0  0  0  0  0  0  0  0  0
    0.3202    1.5017   28.1381 C   0  0  0  0  0  0  0  0  0  0  0  0
   -0.8537    1.7770   27.4710 C   0  0  0  0  0  0  0  0  0  0  0  0
   -1.7898    0.8049   27.2213 C   0  0  0  0  0  0  0  0  0  0  0  0
   -1.6047   -0.4974   27.6243 C   0  0  0  0  0  0  0  0  0  0  0  0
   -2.8594    1.2801   26.5323 O   0  0  0  0  0  0  0  0  0  0  0  0
   -2.5304    2.6782   26.4446 C   0  0  0  0  0  0  0  0  0  0  0  0
   -1.2201    2.9877   26.9728 O   0  0  0  0  0  0  0  0  0  0  0  0
  1  2  1  0
  3  2  1  1
  3  4  2  0
  3  5  2  0
  5  6  1  0
  7  6  1  6
  7  8  1  0
  8  9  1  0
  9 10  1  0
 10 11  2  0
 10 12  2  0
 10 13  1  0
 13 14  1  0
 14 15  1  0
 15 16  1  0
 16 17  1  0
 17 18  1  0
  9 19  1  0
 19 20  1  0
 20 21  1  0
 21 22  1  0
 22 23  2  0
 23 24  1  0
  3 25  1  0
 25 26  1  0
 26 27  1  0
 27 28  2  0
 28 29  1  0
 29 30  2  0
 30 31  1  0
 31 32  2  0
 31 33  1  0
 33 34  1  0
 34 35  1  0
 24  7  1  0
 32 27  1  0
 18 13  1  0
 24 20  2  0
 35 30  1  0
M  END
>  <SLURM_JOB_ID>  (53) 
350558

>  <original SMILES>  (53) 
CC[S@](=O)(=NC[C@H]1CN(S(=O)(=O)N2CCNCC2)Cc2[nH]nnc21)NCc1ccc2c(c1)OCO2

>  <tags>  (53) 
Fragmenstein placed

>  <inchikey>  (53) 
QEYIRGNJEXUPFD-JCYUZIAUSA-N

>  <scratch_subdir>  (53) 
/opt/xchem-fragalysis-2/maxwin/BulkDock/SCRATCH/350558/C499-P13

>  <name>  (53) 
QEYIRGNJEXUPFD-JCYUZIAUSA-N

>  <energy_score>  (53) 
-104.318199

>  <fragmenstein_error>  (53) 
None

>  <csv_name>  (53) 
D68EV3C_iter1_fstein_split1000_batch000.csv

>  <fragmenstein_mode>  (53) 
expansion

>  <HIPPO Compound ID>  (53) 
499

>  <HIPPO Pose ID>  (53) 
545

>  <ref_mols>  (53) 
7gp9-a,B1020a

>  <fragmenstein_runtime>  (53) 
7.318127

>  <fragmenstein_outcome>  (53) 
acceptable

>  <distance_score>  (53) 
0.414232

>  <score_inspiration>  (53) 
0.857158

>  <original ID>  (53) 
QEYIRGNJEXUPFD-JCYUZIAUSA-N

>  <ref_pdb>  (53) 
7gp9-a

>  <alias>  (53) 
None

$$$$
555
     RDKit          3D

 35 39  0  0  0  0  0  0  0  0999 V2000
   -1.6561   -0.5436   32.0053 C   0  0  0  0  0  0  0  0  0  0  0  0
   -0.4874   -1.5047   32.1486 C   0  0  0  0  0  0  0  0  0  0  0  0
   -0.7492   -3.0312   31.2682 S   0  0  2  0  0  0  0  0  0  0  0  0
   -2.0159   -3.5921   31.6828 O   0  0  0  0  0  0  0  0  0  0  0  0
    0.5415   -3.8241   31.1158 N   0  0  0  0  0  0  0  0  0  0  0  0
    1.3578   -4.4067   32.1690 C   0  0  0  0  0  0  0  0  0  0  0  0
    0.7771   -5.5364   33.0108 C   0  0  1  0  0  0  0  0  0  0  0  0
    0.0151   -4.9941   34.2365 C   0  0  0  0  0  0  0  0  0  0  0  0
   -0.3620   -6.0916   35.1831 N   0  0  0  0  0  0  0  0  0  0  0  0
    0.5751   -6.2753   36.5527 S   0  0  0  0  0  0  0  0  0  0  0  0
    1.9575   -6.2820   36.1327 O   0  0  0  0  0  0  0  0  0  0  0  0
    0.0182   -7.3272   37.3636 O   0  0  0  0  0  0  0  0  0  0  0  0
    0.2353   -4.8052   37.2922 N   0  0  0  0  0  0  0  0  0  0  0  0
    1.1899   -4.4123   38.3731 C   0  0  0  0  0  0  0  0  0  0  0  0
    0.6066   -3.2851   39.2599 C   0  0  0  0  0  0  0  0  0  0  0  0
   -0.3051   -2.3840   38.5297 N   0  0  0  0  0  0  0  0  0  0  0  0
   -1.4635   -3.1583   38.0338 C   0  0  0  0  0  0  0  0  0  0  0  0
   -1.1780   -4.6438   37.7384 C   0  0  0  0  0  0  0  0  0  0  0  0
   -1.0349   -7.2987   34.6496 C   0  0  0  0  0  0  0  0  0  0  0  0
   -0.9202   -7.3302   33.1814 C   0  0  0  0  0  0  0  0  0  0  0  0
   -1.6068   -8.1023   32.3011 N   0  0  0  0  0  0  0  0  0  0  0  0
   -1.1928   -7.8630   31.0414 N   0  0  0  0  0  0  0  0  0  0  0  0
   -0.2517   -6.9189   31.0917 N   0  0  0  0  0  0  0  0  0  0  0  0
   -0.0973   -6.5630   32.3941 C   0  0  0  0  0  0  0  0  0  0  0  0
   -0.9986   -2.6018   29.6667 N   0  0  0  0  0  0  0  0  0  0  0  0
    0.0991   -2.0684   28.8745 C   0  0  0  0  0  0  0  0  0  0  0  0
   -0.1308   -0.6389   28.4612 C   0  0  0  0  0  0  0  0  0  0  0  0
    0.7675    0.3839   28.8352 C   0  0  0  0  0  0  0  0  0  0  0  0
    0.5732    1.7039   28.4109 C   0  0  0  0  0  0  0  0  0  0  0  0
   -0.5162    1.9715   27.6125 C   0  0  0  0  0  0  0  0  0  0  0  0
   -1.3852    0.9838   27.2334 C   0  0  0  0  0  0  0  0  0  0  0  0
   -1.2240   -0.3198   27.6484 C   0  0  0  0  0  0  0  0  0  0  0  0
   -2.3622    1.4439   26.4064 O   0  0  0  0  0  0  0  0  0  0  0  0
   -2.0847    2.8547   26.4164 C   0  0  0  0  0  0  0  0  0  0  0  0
   -0.8519    3.1817   27.0934 O   0  0  0  0  0  0  0  0  0  0  0  0
  1  2  1  0
  3  2  1  1
  3  4  2  0
  3  5  2  0
  5  6  1  0
  7  6  1  6
  7  8  1  0
  8  9  1  0
  9 10  1  0
 10 11  2  0
 10 12  2  0
 10 13  1  0
 13 14  1  0
 14 15  1  0
 15 16  1  0
 16 17  1  0
 17 18  1  0
  9 19  1  0
 19 20  1  0
 20 21  1  0
 21 22  1  0
 22 23  2  0
 23 24  1  0
  3 25  1  0
 25 26  1  0
 26 27  1  0
 27 28  2  0
 28 29  1  0
 29 30  2  0
 30 31  1  0
 31 32  2  0
 31 33  1  0
 33 34  1  0
 34 35  1  0
 24  7  1  0
 32 27  1  0
 18 13  1  0
 24 20  2  0
 35 30  1  0
M  END
>  <SLURM_JOB_ID>  (54) 
350558

>  <original SMILES>  (54) 
CC[S@](=O)(=NC[C@H]1CN(S(=O)(=O)N2CCNCC2)Cc2[nH]nnc21)NCc1ccc2c(c1)OCO2

>  <tags>  (54) 
Fragmenstein placed

>  <inchikey>  (54) 
QEYIRGNJEXUPFD-JCYUZIAUSA-N

>  <scratch_subdir>  (54) 
/opt/xchem-fragalysis-2/maxwin/BulkDock/SCRATCH/350558/C499-P168

>  <name>  (54) 
QEYIRGNJEXUPFD-JCYUZIAUSA-N

>  <energy_score>  (54) 
-102.847515

>  <fragmenstein_error>  (54) 
None

>  <csv_name>  (54) 
D68EV3C_iter1_fstein_split1000_batch000.csv

>  <fragmenstein_mode>  (54) 
expansion

>  <HIPPO Compound ID>  (54) 
499

>  <HIPPO Pose ID>  (54) 
555

>  <ref_mols>  (54) 
7gp9-a,B1020a

>  <fragmenstein_runtime>  (54) 
7.33487

>  <fragmenstein_outcome>  (54) 
acceptable

>  <distance_score>  (54) 
0.524197

>  <score_inspiration>  (54) 
0.81466

>  <original ID>  (54) 
QEYIRGNJEXUPFD-JCYUZIAUSA-N

>  <ref_pdb>  (54) 
B1020a

>  <alias>  (54) 
None

$$$$
568
     RDKit          3D

 31 36  0  0  0  0  0  0  0  0999 V2000
   -2.4094   -0.3162   33.0509 C   0  0  0  0  0  0  0  0  0  0  0  0
   -1.6279   -0.4374   31.7655 C   0  0  0  0  0  0  0  0  0  0  0  0
   -1.4679   -2.1329   31.3001 S   0  0  0  0  0  0  0  0  0  0  0  0
   -0.6902   -2.7709   32.3571 O   0  0  0  0  0  0  0  0  0  0  0  0
   -2.7503   -2.7027   30.9705 O   0  0  0  0  0  0  0  0  0  0  0  0
   -0.4204   -2.1808   29.8475 C   0  0  0  0  0  0  0  0  0  0  0  0
   -0.2687   -1.1276   28.9271 C   0  0  0  0  0  0  0  0  0  0  0  0
   -1.3275   -0.2723   28.5630 C   0  0  0  0  0  0  0  0  0  0  0  0
   -1.0627    0.8313   27.7856 C   0  0  0  0  0  0  0  0  0  0  0  0
    0.2024    1.1114   27.3514 C   0  0  0  0  0  0  0  0  0  0  0  0
    1.2544    0.2494   27.5903 C   0  0  0  0  0  0  0  0  0  0  0  0
    1.0234   -0.9166   28.3425 C   0  0  0  0  0  0  0  0  0  0  0  0
    2.0763   -1.8436   28.5555 C   0  0  0  0  0  0  0  0  0  0  0  0
    1.8522   -2.9643   29.3679 C   0  0  0  0  0  0  0  0  0  0  0  0
    2.7058   -3.9280   29.8780 N   0  0  0  0  0  0  0  0  0  0  0  0
    2.0017   -4.5454   30.8049 C   0  0  0  0  0  0  0  0  0  0  0  0
    2.5782   -5.5147   32.1006 S   0  0  0  0  0  0  0  0  0  0  0  0
    1.1526   -6.1047   32.9013 C   0  0  0  0  0  0  0  0  0  0  0  0
    0.9859   -5.8344   34.2142 C   0  0  0  0  0  0  0  0  0  0  0  0
   -0.1549   -6.3815   34.9311 C   0  0  0  0  0  0  0  0  0  0  0  0
   -1.0650   -7.1538   34.3122 C   0  0  0  0  0  0  0  0  0  0  0  0
   -0.9296   -7.4246   32.9263 C   0  0  0  0  0  0  0  0  0  0  0  0
   -1.6807   -8.0893   32.0743 N   0  0  0  0  0  0  0  0  0  0  0  0
   -1.0659   -8.0545   30.8499 N   0  0  0  0  0  0  0  0  0  0  0  0
    0.0542   -7.3835   30.9898 C   0  0  0  0  0  0  0  0  0  0  0  0
    0.1872   -6.9174   32.2728 N   0  0  0  0  0  0  0  0  0  0  0  0
    0.7035   -4.1918   30.7514 N   0  0  0  0  0  0  0  0  0  0  0  0
    0.6052   -3.1091   29.9291 C   0  0  0  0  0  0  0  0  0  0  0  0
    0.2579    2.2756   26.6486 O   0  0  0  0  0  0  0  0  0  0  0  0
   -1.1213    2.7090   26.7216 C   0  0  0  0  0  0  0  0  0  0  0  0
   -1.9720    1.7567   27.3880 O   0  0  0  0  0  0  0  0  0  0  0  0
  1  2  1  0
  2  3  1  0
  3  4  2  0
  3  5  2  0
  3  6  1  0
  6  7  2  0
  7  8  1  0
  8  9  2  0
  9 10  1  0
 10 11  2  0
 11 12  1  0
 12 13  2  0
 13 14  1  0
 14 15  1  0
 15 16  2  0
 16 17  1  0
 17 18  1  0
 18 19  2  0
 19 20  1  0
 20 21  2  0
 21 22  1  0
 22 23  2  0
 23 24  1  0
 24 25  2  0
 25 26  1  0
 16 27  1  0
 27 28  1  0
 10 29  1  0
 29 30  1  0
 30 31  1  0
 28  6  1  0
 12  7  1  0
 28 14  2  0
 31  9  1  0
 26 18  1  0
 26 22  1  0
M  END
>  <SLURM_JOB_ID>  (55) 
350558

>  <original SMILES>  (55) 
CCS(=O)(=O)c1c2cc3c(cc2cc2nc(Sc4cccc5nncn45)[nH]c12)OCO3

>  <tags>  (55) 
Fragmenstein placed

>  <inchikey>  (55) 
OEWYTKMMRVAGLC-UHFFFAOYSA-N

>  <scratch_subdir>  (55) 
/opt/xchem-fragalysis-2/maxwin/BulkDock/SCRATCH/350558/C500-P13

>  <name>  (55) 
OEWYTKMMRVAGLC-UHFFFAOYSA-N

>  <energy_score>  (55) 
-40.076922

>  <fragmenstein_error>  (55) 
None

>  <csv_name>  (55) 
D68EV3C_iter1_fstein_split1000_batch000.csv

>  <fragmenstein_mode>  (55) 
expansion

>  <HIPPO Compound ID>  (55) 
500

>  <HIPPO Pose ID>  (55) 
568

>  <ref_mols>  (55) 
7gp9-a,B1219a

>  <fragmenstein_runtime>  (55) 
7.865066

>  <fragmenstein_outcome>  (55) 
acceptable

>  <distance_score>  (55) 
0.828969

>  <score_inspiration>  (55) 
0.720376

>  <original ID>  (55) 
OEWYTKMMRVAGLC-UHFFFAOYSA-N

>  <ref_pdb>  (55) 
7gp9-a

>  <alias>  (55) 
None

$$$$
576
     RDKit          3D

 31 36  0  0  0  0  0  0  0  0999 V2000
   -2.4095   -0.1987   32.9640 C   0  0  0  0  0  0  0  0  0  0  0  0
   -1.6393   -0.3385   31.6737 C   0  0  0  0  0  0  0  0  0  0  0  0
   -1.2945   -2.0392   31.3380 S   0  0  0  0  0  0  0  0  0  0  0  0
   -0.4714   -2.5149   32.4450 O   0  0  0  0  0  0  0  0  0  0  0  0
   -2.4977   -2.7828   31.0445 O   0  0  0  0  0  0  0  0  0  0  0  0
   -0.2129   -2.1241   29.9083 C   0  0  0  0  0  0  0  0  0  0  0  0
    0.0083   -1.0920   28.9741 C   0  0  0  0  0  0  0  0  0  0  0  0
   -0.9932   -0.1928   28.5714 C   0  0  0  0  0  0  0  0  0  0  0  0
   -0.6657    0.9013   27.8063 C   0  0  0  0  0  0  0  0  0  0  0  0
    0.6209    1.1273   27.4110 C   0  0  0  0  0  0  0  0  0  0  0  0
    1.6210    0.2086   27.6612 C   0  0  0  0  0  0  0  0  0  0  0  0
    1.3158   -0.9453   28.4079 C   0  0  0  0  0  0  0  0  0  0  0  0
    2.3131   -1.9251   28.6341 C   0  0  0  0  0  0  0  0  0  0  0  0
    2.0265   -3.0207   29.4608 C   0  0  0  0  0  0  0  0  0  0  0  0
    2.8286   -4.0230   29.9773 N   0  0  0  0  0  0  0  0  0  0  0  0
    2.1017   -4.5834   30.9211 C   0  0  0  0  0  0  0  0  0  0  0  0
    2.6377   -5.5818   32.2127 S   0  0  0  0  0  0  0  0  0  0  0  0
    1.1794   -6.1629   32.9566 C   0  0  0  0  0  0  0  0  0  0  0  0
    0.9886   -5.9404   34.2751 C   0  0  0  0  0  0  0  0  0  0  0  0
   -0.1759   -6.4957   34.9460 C   0  0  0  0  0  0  0  0  0  0  0  0
   -1.0792   -7.2364   34.2802 C   0  0  0  0  0  0  0  0  0  0  0  0
   -0.9143   -7.4593   32.8882 C   0  0  0  0  0  0  0  0  0  0  0  0
   -1.6424   -8.0990   31.9990 N   0  0  0  0  0  0  0  0  0  0  0  0
   -1.0069   -8.0177   30.7876 N   0  0  0  0  0  0  0  0  0  0  0  0
    0.1022   -7.3394   30.9687 C   0  0  0  0  0  0  0  0  0  0  0  0
    0.2158   -6.9320   32.2743 N   0  0  0  0  0  0  0  0  0  0  0  0
    0.8280   -4.1456   30.8890 N   0  0  0  0  0  0  0  0  0  0  0  0
    0.7743   -3.0907   30.0258 C   0  0  0  0  0  0  0  0  0  0  0  0
    0.7476    2.2905   26.7170 O   0  0  0  0  0  0  0  0  0  0  0  0
   -0.6082    2.7931   26.7725 C   0  0  0  0  0  0  0  0  0  0  0  0
   -1.5255    1.8594   27.3763 O   0  0  0  0  0  0  0  0  0  0  0  0
  1  2  1  0
  2  3  1  0
  3  4  2  0
  3  5  2  0
  3  6  1  0
  6  7  2  0
  7  8  1  0
  8  9  2  0
  9 10  1  0
 10 11  2  0
 11 12  1  0
 12 13  2  0
 13 14  1  0
 14 15  1  0
 15 16  2  0
 16 17  1  0
 17 18  1  0
 18 19  2  0
 19 20  1  0
 20 21  2  0
 21 22  1  0
 22 23  2  0
 23 24  1  0
 24 25  2  0
 25 26  1  0
 16 27  1  0
 27 28  1  0
 10 29  1  0
 29 30  1  0
 30 31  1  0
 28  6  1  0
 12  7  1  0
 28 14  2  0
 31  9  1  0
 26 18  1  0
 26 22  1  0
M  END
>  <SLURM_JOB_ID>  (56) 
350558

>  <original SMILES>  (56) 
CCS(=O)(=O)c1c2cc3c(cc2cc2nc(Sc4cccc5nncn45)[nH]c12)OCO3

>  <tags>  (56) 
Fragmenstein placed

>  <inchikey>  (56) 
OEWYTKMMRVAGLC-UHFFFAOYSA-N

>  <scratch_subdir>  (56) 
/opt/xchem-fragalysis-2/maxwin/BulkDock/SCRATCH/350558/C500-P180

>  <name>  (56) 
OEWYTKMMRVAGLC-UHFFFAOYSA-N

>  <energy_score>  (56) 
-39.270809

>  <fragmenstein_error>  (56) 
None

>  <csv_name>  (56) 
D68EV3C_iter1_fstein_split1000_batch000.csv

>  <fragmenstein_mode>  (56) 
expansion

>  <HIPPO Compound ID>  (56) 
500

>  <HIPPO Pose ID>  (56) 
576

>  <ref_mols>  (56) 
7gp9-a,B1219a

>  <fragmenstein_runtime>  (56) 
5.365141

>  <fragmenstein_outcome>  (56) 
acceptable

>  <distance_score>  (56) 
0.885401

>  <score_inspiration>  (56) 
0.672237

>  <original ID>  (56) 
OEWYTKMMRVAGLC-UHFFFAOYSA-N

>  <ref_pdb>  (56) 
B1219a

>  <alias>  (56) 
None

$$$$
583
     RDKit          3D

 31 34  0  0  0  0  0  0  0  0999 V2000
   -2.2427   -0.6543   31.7013 C   0  0  0  0  0  0  0  0  0  0  0  0
   -0.9025   -1.3249   31.8947 C   0  0  0  0  0  0  0  0  0  0  0  0
   -0.8035   -2.9174   31.1120 S   0  0  2  0  0  0  0  0  0  0  0  0
   -1.9614   -3.6908   31.4995 O   0  0  0  0  0  0  0  0  0  0  0  0
    0.6506   -3.3856   31.2097 N   0  0  0  0  0  0  0  0  0  0  0  0
    1.1544   -4.5139   30.3995 C   0  0  0  0  0  0  0  0  0  0  0  0
    0.8435   -5.9144   30.9397 C   0  0  2  0  0  0  0  0  0  0  0  0
   -0.4283   -6.5133   30.6002 N   0  0  0  0  0  0  0  0  0  0  0  0
   -0.9394   -7.2544   31.6454 C   0  0  0  0  0  0  0  0  0  0  0  0
   -1.8161   -8.0900   31.5654 O   0  0  0  0  0  0  0  0  0  0  0  0
   -0.1823   -6.8624   32.8450 C   0  0  0  0  0  0  0  0  0  0  0  0
   -0.4242   -7.1186   34.1765 C   0  0  0  0  0  0  0  0  0  0  0  0
    0.4363   -6.4974   35.0900 C   0  0  0  0  0  0  0  0  0  0  0  0
    0.1685   -6.7164   36.8177 S   0  0  0  0  0  0  0  0  0  0  0  0
    1.4286   -6.4947   37.4970 O   0  0  0  0  0  0  0  0  0  0  0  0
   -1.0330   -5.9877   37.1591 O   0  0  0  0  0  0  0  0  0  0  0  0
   -0.1559   -8.2575   37.0192 F   0  0  0  0  0  0  0  0  0  0  0  0
    1.5197   -5.6961   34.6841 C   0  0  0  0  0  0  0  0  0  0  0  0
    1.7557   -5.4842   33.3335 C   0  0  0  0  0  0  0  0  0  0  0  0
    0.8825   -6.0607   32.4263 C   0  0  0  0  0  0  0  0  0  0  0  0
   -0.9953   -2.7282   29.4748 N   0  0  0  0  0  0  0  0  0  0  0  0
   -0.0614   -2.0406   28.6205 C   0  0  0  0  0  0  0  0  0  0  0  0
   -0.4383   -0.6308   28.2818 C   0  0  0  0  0  0  0  0  0  0  0  0
    0.4250    0.4371   28.6177 C   0  0  0  0  0  0  0  0  0  0  0  0
    0.1424    1.7407   28.2062 C   0  0  0  0  0  0  0  0  0  0  0  0
   -1.0024    1.9429   27.4688 C   0  0  0  0  0  0  0  0  0  0  0  0
   -1.8520    0.9133   27.1504 C   0  0  0  0  0  0  0  0  0  0  0  0
   -1.6020   -0.3801   27.5418 C   0  0  0  0  0  0  0  0  0  0  0  0
   -2.9040    1.3219   26.3968 O   0  0  0  0  0  0  0  0  0  0  0  0
   -2.6682    2.7416   26.3474 C   0  0  0  0  0  0  0  0  0  0  0  0
   -1.4164    3.1308   26.9561 O   0  0  0  0  0  0  0  0  0  0  0  0
  1  2  1  0
  3  2  1  1
  3  4  2  0
  3  5  2  0
  5  6  1  0
  7  6  1  1
  7  8  1  0
  8  9  1  0
  9 10  2  0
  9 11  1  0
 11 12  2  0
 12 13  1  0
 13 14  1  0
 14 15  2  0
 14 16  2  0
 14 17  1  0
 13 18  2  0
 18 19  1  0
 19 20  2  0
  3 21  1  0
 21 22  1  0
 22 23  1  0
 23 24  2  0
 24 25  1  0
 25 26  2  0
 26 27  1  0
 27 28  2  0
 27 29  1  0
 29 30  1  0
 30 31  1  0
 20  7  1  0
 28 23  1  0
 20 11  1  0
 31 26  1  0
M  END
>  <SLURM_JOB_ID>  (57) 
350558

>  <original SMILES>  (57) 
CC[S@](=O)(=NC[C@@H]1NC(=O)c2cc(S(=O)(=O)F)ccc21)NCc1ccc2c(c1)OCO2

>  <tags>  (57) 
Fragmenstein placed

>  <inchikey>  (57) 
YCTDSFVDJVJPFF-BEIWTESXSA-N

>  <scratch_subdir>  (57) 
/opt/xchem-fragalysis-2/maxwin/BulkDock/SCRATCH/350558/C501-P13

>  <name>  (57) 
YCTDSFVDJVJPFF-BEIWTESXSA-N

>  <energy_score>  (57) 
-52.754354

>  <fragmenstein_error>  (57) 
None

>  <csv_name>  (57) 
D68EV3C_iter1_fstein_split1000_batch000.csv

>  <fragmenstein_mode>  (57) 
expansion

>  <HIPPO Compound ID>  (57) 
501

>  <HIPPO Pose ID>  (57) 
583

>  <ref_mols>  (57) 
7gp9-a,B1264a

>  <fragmenstein_runtime>  (57) 
4.034431

>  <fragmenstein_outcome>  (57) 
acceptable

>  <distance_score>  (57) 
0.483196

>  <score_inspiration>  (57) 
0.837755

>  <original ID>  (57) 
YCTDSFVDJVJPFF-BEIWTESXSA-N

>  <ref_pdb>  (57) 
7gp9-a

>  <alias>  (57) 
None

$$$$
594
     RDKit          3D

 31 34  0  0  0  0  0  0  0  0999 V2000
   -1.9793   -0.2668   31.9246 C   0  0  0  0  0  0  0  0  0  0  0  0
   -0.8046   -1.2207   31.9595 C   0  0  0  0  0  0  0  0  0  0  0  0
   -1.1036   -2.6752   30.9845 S   0  0  2  0  0  0  0  0  0  0  0  0
   -2.3421   -3.2777   31.4179 O   0  0  0  0  0  0  0  0  0  0  0  0
    0.1957   -3.4478   30.7812 N   0  0  0  0  0  0  0  0  0  0  0  0
    0.7370   -4.1785   31.8900 C   0  0  0  0  0  0  0  0  0  0  0  0
    1.0514   -5.6387   31.4835 C   0  0  2  0  0  0  0  0  0  0  0  0
   -0.0585   -6.4013   30.9436 N   0  0  0  0  0  0  0  0  0  0  0  0
   -0.6906   -7.1791   31.8901 C   0  0  0  0  0  0  0  0  0  0  0  0
   -1.6768   -7.8651   31.7266 O   0  0  0  0  0  0  0  0  0  0  0  0
    0.0891   -7.0184   33.1327 C   0  0  0  0  0  0  0  0  0  0  0  0
   -0.2315   -7.2927   34.4407 C   0  0  0  0  0  0  0  0  0  0  0  0
    0.6626   -6.8029   35.4059 C   0  0  0  0  0  0  0  0  0  0  0  0
    0.1971   -6.8177   37.1057 S   0  0  0  0  0  0  0  0  0  0  0  0
    1.3546   -6.4178   37.8813 O   0  0  0  0  0  0  0  0  0  0  0  0
   -1.0602   -6.1078   37.1972 O   0  0  0  0  0  0  0  0  0  0  0  0
   -0.0736   -8.3267   37.4754 F   0  0  0  0  0  0  0  0  0  0  0  0
    1.8810   -6.1762   35.0782 C   0  0  0  0  0  0  0  0  0  0  0  0
    2.1887   -5.9235   33.7583 C   0  0  0  0  0  0  0  0  0  0  0  0
    1.2394   -6.2858   32.8175 C   0  0  0  0  0  0  0  0  0  0  0  0
   -1.3602   -2.1804   29.4213 N   0  0  0  0  0  0  0  0  0  0  0  0
   -0.2209   -1.6963   28.6588 C   0  0  0  0  0  0  0  0  0  0  0  0
   -0.4220   -0.2803   28.2175 C   0  0  0  0  0  0  0  0  0  0  0  0
    0.5437    0.7062   28.5200 C   0  0  0  0  0  0  0  0  0  0  0  0
    0.3690    2.0251   28.1027 C   0  0  0  0  0  0  0  0  0  0  0  0
   -0.7701    2.3201   27.3899 C   0  0  0  0  0  0  0  0  0  0  0  0
   -1.7024    1.3623   27.0806 C   0  0  0  0  0  0  0  0  0  0  0  0
   -1.5596    0.0574   27.4769 C   0  0  0  0  0  0  0  0  0  0  0  0
   -2.7181    1.8564   26.3308 O   0  0  0  0  0  0  0  0  0  0  0  0
   -2.4129    3.2592   26.3504 C   0  0  0  0  0  0  0  0  0  0  0  0
   -1.1042    3.5402   26.8932 O   0  0  0  0  0  0  0  0  0  0  0  0
  1  2  1  0
  3  2  1  1
  3  4  2  0
  3  5  2  0
  5  6  1  0
  7  6  1  1
  7  8  1  0
  8  9  1  0
  9 10  2  0
  9 11  1  0
 11 12  2  0
 12 13  1  0
 13 14  1  0
 14 15  2  0
 14 16  2  0
 14 17  1  0
 13 18  2  0
 18 19  1  0
 19 20  2  0
  3 21  1  0
 21 22  1  0
 22 23  1  0
 23 24  2  0
 24 25  1  0
 25 26  2  0
 26 27  1  0
 27 28  2  0
 27 29  1  0
 29 30  1  0
 30 31  1  0
 20  7  1  0
 28 23  1  0
 20 11  1  0
 31 26  1  0
M  END
>  <SLURM_JOB_ID>  (58) 
350558

>  <original SMILES>  (58) 
CC[S@](=O)(=NC[C@@H]1NC(=O)c2cc(S(=O)(=O)F)ccc21)NCc1ccc2c(c1)OCO2

>  <tags>  (58) 
Fragmenstein placed

>  <inchikey>  (58) 
YCTDSFVDJVJPFF-BEIWTESXSA-N

>  <scratch_subdir>  (58) 
/opt/xchem-fragalysis-2/maxwin/BulkDock/SCRATCH/350558/C501-P183

>  <name>  (58) 
YCTDSFVDJVJPFF-BEIWTESXSA-N

>  <energy_score>  (58) 
-43.857392

>  <fragmenstein_error>  (58) 
None

>  <csv_name>  (58) 
D68EV3C_iter1_fstein_split1000_batch000.csv

>  <fragmenstein_mode>  (58) 
expansion

>  <HIPPO Compound ID>  (58) 
501

>  <HIPPO Pose ID>  (58) 
594

>  <ref_mols>  (58) 
7gp9-a,B1264a

>  <fragmenstein_runtime>  (58) 
6.184024

>  <fragmenstein_outcome>  (58) 
acceptable

>  <distance_score>  (58) 
0.86237

>  <score_inspiration>  (58) 
0.666536

>  <original ID>  (58) 
YCTDSFVDJVJPFF-BEIWTESXSA-N

>  <ref_pdb>  (58) 
B1264a

>  <alias>  (58) 
None

$$$$
1663
     RDKit          3D

 19 21  0  0  0  0  0  0  0  0999 V2000
   -0.2901   -3.9720   30.1668 C   0  0  0  0  0  0  0  0  0  0  0  0
    0.7409   -4.9827   30.6900 C   0  0  2  0  0  0  0  0  0  0  0  0
    0.1096   -6.3689   30.7837 C   0  0  0  0  0  0  0  0  0  0  0  0
   -0.4192   -6.4449   32.2024 C   0  0  0  0  0  0  0  0  0  0  0  0
   -0.0323   -5.2209   32.8425 O   0  0  0  0  0  0  0  0  0  0  0  0
    1.1426   -4.7533   32.1578 C   0  0  2  0  0  0  0  0  0  0  0  0
    1.6189   -3.3697   32.5957 C   0  0  0  0  0  0  0  0  0  0  0  0
    2.2324   -2.5418   31.6358 C   0  0  0  0  0  0  0  0  0  0  0  0
    2.6993   -1.2614   31.9280 C   0  0  0  0  0  0  0  0  0  0  0  0
    2.5705   -0.8180   33.2391 C   0  0  0  0  0  0  0  0  0  0  0  0
    3.0245    0.6831   33.9480 S   0  0  0  0  0  0  0  0  0  0  0  0
    2.4685    0.2590   35.4586 N   0  0  0  0  0  0  0  0  0  0  0  0
    1.9601   -0.9588   35.4937 N   0  0  0  0  0  0  0  0  0  0  0  0
    2.0138   -1.6018   34.2481 C   0  0  0  0  0  0  0  0  0  0  0  0
    1.5552   -2.9211   33.9561 C   0  0  0  0  0  0  0  0  0  0  0  0
    0.9637   -3.7701   35.0584 C   0  0  0  0  0  0  0  0  0  0  0  0
   -0.4222   -3.5671   35.1043 O   0  0  0  0  0  0  0  0  0  0  0  0
    1.4827   -3.5033   36.3396 O   0  0  0  0  0  0  0  0  0  0  0  0
    1.1520   -5.1037   34.9048 F   0  0  0  0  0  0  0  0  0  0  0  0
  2  1  1  1
  2  3  1  0
  3  4  1  0
  4  5  1  0
  5  6  1  0
  6  7  1  6
  7  8  2  0
  8  9  1  0
  9 10  2  0
 10 11  1  0
 11 12  1  0
 12 13  2  0
 13 14  1  0
 14 15  2  0
 15 16  1  0
 16 17  1  0
 16 18  1  0
 16 19  1  0
  6  2  1  0
 15  7  1  0
 14 10  1  0
M  END
>  <SLURM_JOB_ID>  (59) 
350558

>  <original SMILES>  (59) 
C[C@@H]1CCO[C@@H]1c1ccc2snnc2c1C(O)(O)F

>  <tags>  (59) 
Fragmenstein placed

>  <inchikey>  (59) 
WBZYOYVQEMGXKH-KBUNVGBDSA-N

>  <scratch_subdir>  (59) 
/opt/xchem-fragalysis-2/maxwin/BulkDock/SCRATCH/350558/C582-P41

>  <name>  (59) 
WBZYOYVQEMGXKH-KBUNVGBDSA-N

>  <energy_score>  (59) 
-54.819581

>  <fragmenstein_error>  (59) 
None

>  <csv_name>  (59) 
D68EV3C_iter1_fstein_split1000_batch000.csv

>  <fragmenstein_mode>  (59) 
expansion

>  <HIPPO Compound ID>  (59) 
582

>  <HIPPO Pose ID>  (59) 
1663

>  <ref_mols>  (59) 
7gol-a,B0455a

>  <fragmenstein_runtime>  (59) 
1.867413

>  <fragmenstein_outcome>  (59) 
acceptable

>  <distance_score>  (59) 
0.913323

>  <score_inspiration>  (59) 
0.554671

>  <original ID>  (59) 
WBZYOYVQEMGXKH-KBUNVGBDSA-N

>  <ref_pdb>  (59) 
7gol-a

>  <alias>  (59) 
None

$$$$
1667
     RDKit          3D

 19 21  0  0  0  0  0  0  0  0999 V2000
   -0.3033   -3.9829   30.0903 C   0  0  0  0  0  0  0  0  0  0  0  0
    0.7265   -4.9811   30.6404 C   0  0  2  0  0  0  0  0  0  0  0  0
    0.0998   -6.3662   30.7399 C   0  0  0  0  0  0  0  0  0  0  0  0
   -0.5290   -6.3834   32.1190 C   0  0  0  0  0  0  0  0  0  0  0  0
   -0.0832   -5.1960   32.7901 O   0  0  0  0  0  0  0  0  0  0  0  0
    1.1034   -4.7448   32.1149 C   0  0  2  0  0  0  0  0  0  0  0  0
    1.5865   -3.3647   32.5568 C   0  0  0  0  0  0  0  0  0  0  0  0
    2.1958   -2.5316   31.5993 C   0  0  0  0  0  0  0  0  0  0  0  0
    2.6707   -1.2556   31.8987 C   0  0  0  0  0  0  0  0  0  0  0  0
    2.5534   -0.8213   33.2140 C   0  0  0  0  0  0  0  0  0  0  0  0
    3.0195    0.6721   33.9312 S   0  0  0  0  0  0  0  0  0  0  0  0
    2.4704    0.2398   35.4420 N   0  0  0  0  0  0  0  0  0  0  0  0
    1.9563   -0.9759   35.4713 N   0  0  0  0  0  0  0  0  0  0  0  0
    1.9996   -1.6100   34.2206 C   0  0  0  0  0  0  0  0  0  0  0  0
    1.5331   -2.9251   33.9215 C   0  0  0  0  0  0  0  0  0  0  0  0
    0.9432   -3.7779   35.0222 C   0  0  0  0  0  0  0  0  0  0  0  0
   -0.4402   -3.5610   35.0825 O   0  0  0  0  0  0  0  0  0  0  0  0
    1.4767   -3.5261   36.3008 O   0  0  0  0  0  0  0  0  0  0  0  0
    1.1159   -5.1122   34.8565 F   0  0  0  0  0  0  0  0  0  0  0  0
  2  1  1  1
  2  3  1  0
  3  4  1  0
  4  5  1  0
  5  6  1  0
  6  7  1  6
  7  8  2  0
  8  9  1  0
  9 10  2  0
 10 11  1  0
 11 12  1  0
 12 13  2  0
 13 14  1  0
 14 15  2  0
 15 16  1  0
 16 17  1  0
 16 18  1  0
 16 19  1  0
  6  2  1  0
 15  7  1  0
 14 10  1  0
M  END
>  <SLURM_JOB_ID>  (60) 
350558

>  <original SMILES>  (60) 
C[C@@H]1CCO[C@@H]1c1ccc2snnc2c1C(O)(O)F

>  <tags>  (60) 
Fragmenstein placed

>  <inchikey>  (60) 
WBZYOYVQEMGXKH-KBUNVGBDSA-N

>  <scratch_subdir>  (60) 
/opt/xchem-fragalysis-2/maxwin/BulkDock/SCRATCH/350558/C582-P136

>  <name>  (60) 
WBZYOYVQEMGXKH-KBUNVGBDSA-N

>  <energy_score>  (60) 
-55.410996

>  <fragmenstein_error>  (60) 
None

>  <csv_name>  (60) 
D68EV3C_iter1_fstein_split1000_batch000.csv

>  <fragmenstein_mode>  (60) 
expansion

>  <HIPPO Compound ID>  (60) 
582

>  <HIPPO Pose ID>  (60) 
1667

>  <ref_mols>  (60) 
7gol-a,B0455a

>  <fragmenstein_runtime>  (60) 
1.85013

>  <fragmenstein_outcome>  (60) 
acceptable

>  <distance_score>  (60) 
0.909821

>  <score_inspiration>  (60) 
0.554339

>  <original ID>  (60) 
WBZYOYVQEMGXKH-KBUNVGBDSA-N

>  <ref_pdb>  (60) 
B0455a

>  <alias>  (60) 
None

$$$$
1998
     RDKit          3D

 33 38  0  0  0  0  0  0  0  0999 V2000
   -1.1143   -3.9944   33.9980 O   0  0  0  0  0  0  0  0  0  0  0  0
   -0.6105   -4.4482   35.2753 S   0  0  0  0  0  0  0  0  0  0  0  0
   -1.5248   -4.6631   36.3843 O   0  0  0  0  0  0  0  0  0  0  0  0
    0.6390   -3.2918   35.8760 C   0  0  2  0  0  0  0  0  0  0  0  0
    1.4894   -2.6939   34.7480 C   0  0  0  0  0  0  0  0  0  0  0  0
    2.8912   -2.7507   34.7588 C   0  0  0  0  0  0  0  0  0  0  0  0
    3.6537   -2.0931   33.7901 C   0  0  0  0  0  0  0  0  0  0  0  0
    3.0350   -1.3447   32.7959 C   0  0  0  0  0  0  0  0  0  0  0  0
    1.6507   -1.2621   32.7616 C   0  0  0  0  0  0  0  0  0  0  0  0
    0.8909   -1.9225   33.7292 C   0  0  0  0  0  0  0  0  0  0  0  0
    1.3441   -3.9215   37.0969 C   0  0  0  0  0  0  0  0  0  0  0  0
    1.9221   -5.3318   36.9105 C   0  0  0  0  0  0  0  0  0  0  0  0
    0.9304   -6.3767   36.3788 C   0  0  0  0  0  0  0  0  0  0  0  0
    0.2875   -6.0143   35.0149 C   0  0  1  0  0  0  0  0  0  0  0  0
   -0.7350   -7.1122   34.5980 C   0  0  0  0  0  0  0  0  0  0  0  0
   -0.8645   -7.3007   33.1156 C   0  0  0  0  0  0  0  0  0  0  0  0
   -1.6217   -8.1652   32.4738 N   0  0  0  0  0  0  0  0  0  0  0  0
   -1.3993   -8.0189   31.1237 N   0  0  0  0  0  0  0  0  0  0  0  0
   -0.5119   -7.0650   30.9727 C   0  0  0  0  0  0  0  0  0  0  0  0
   -0.1215   -6.6167   32.1892 N   0  0  0  0  0  0  0  0  0  0  0  0
    0.8338   -5.5878   32.5392 C   0  0  2  0  0  0  0  0  0  0  0  0
    2.2465   -5.3822   31.4184 S   0  0  0  0  0  0  0  0  0  0  0  0
    1.6172   -4.1707   30.3822 C   0  0  0  0  0  0  0  0  0  0  0  0
    0.3566   -3.9633   30.1110 N   0  0  0  0  0  0  0  0  0  0  0  0
    0.3447   -2.7844   29.4076 C   0  0  0  0  0  0  0  0  0  0  0  0
   -0.7392   -2.0432   28.9300 C   0  0  0  0  0  0  0  0  0  0  0  0
   -0.4650   -0.8285   28.3069 C   0  0  0  0  0  0  0  0  0  0  0  0
   -1.4823   -0.0739   27.8724 F   0  0  0  0  0  0  0  0  0  0  0  0
    0.8381   -0.3642   28.1310 C   0  0  0  0  0  0  0  0  0  0  0  0
    1.9359   -1.1080   28.5708 C   0  0  0  0  0  0  0  0  0  0  0  0
    1.6427   -2.3087   29.2157 C   0  0  0  0  0  0  0  0  0  0  0  0
    2.4396   -3.2507   29.8124 N   0  0  0  0  0  0  0  0  0  0  0  0
    1.3903   -5.8950   33.9350 C   0  0  0  0  0  0  0  0  0  0  0  0
  1  2  2  0
  2  3  2  0
  2  4  1  0
  4  5  1  6
  5  6  2  0
  6  7  1  0
  7  8  2  0
  8  9  1  0
  9 10  2  0
  4 11  1  0
 11 12  1  0
 12 13  1  0
 14 13  1  1
 14 15  1  0
 15 16  1  0
 16 17  2  0
 17 18  1  0
 18 19  2  0
 19 20  1  0
 20 21  1  0
 21 22  1  6
 22 23  1  0
 23 24  2  0
 24 25  1  0
 25 26  2  0
 26 27  1  0
 27 28  1  0
 27 29  2  0
 29 30  1  0
 30 31  2  0
 31 32  1  0
 21 33  1  0
 14  2  1  0
 20 16  1  0
 32 23  1  0
 10  5  1  0
 33 14  1  0
 31 25  1  0
M  END
>  <SLURM_JOB_ID>  (61) 
350559

>  <original SMILES>  (61) 
O=S1(=O)[C@H](c2ccccc2)CCC[C@@]12Cc1nncn1[C@H](Sc1nc3cc(F)ccc3[nH]1)C2

>  <tags>  (61) 
Fragmenstein placed

>  <inchikey>  (61) 
NZACALNPKXSTKQ-WPYKKVEZSA-N

>  <scratch_subdir>  (61) 
/opt/xchem-fragalysis-2/maxwin/BulkDock/SCRATCH/350559/C192-P136

>  <name>  (61) 
NZACALNPKXSTKQ-WPYKKVEZSA-N

>  <energy_score>  (61) 
-77.447191

>  <fragmenstein_error>  (61) 
None

>  <csv_name>  (61) 
D68EV3C_iter1_fstein_split1000_batch001.csv

>  <fragmenstein_mode>  (61) 
expansion

>  <HIPPO Compound ID>  (61) 
192

>  <HIPPO Pose ID>  (61) 
1998

>  <ref_mols>  (61) 
B0455a,B1219a

>  <fragmenstein_runtime>  (61) 
5.613309

>  <fragmenstein_outcome>  (61) 
acceptable

>  <distance_score>  (61) 
0.884991

>  <score_inspiration>  (61) 
0.634242

>  <original ID>  (61) 
NZACALNPKXSTKQ-WPYKKVEZSA-N

>  <ref_pdb>  (61) 
B0455a

>  <alias>  (61) 
None

$$$$
2007
     RDKit          3D

 33 38  0  0  0  0  0  0  0  0999 V2000
   -1.1851   -4.1278   33.9102 O   0  0  0  0  0  0  0  0  0  0  0  0
   -0.6857   -4.5190   35.2104 S   0  0  0  0  0  0  0  0  0  0  0  0
   -1.6130   -4.7735   36.3002 O   0  0  0  0  0  0  0  0  0  0  0  0
    0.4918   -3.2928   35.8218 C   0  0  2  0  0  0  0  0  0  0  0  0
    1.3576   -2.6886   34.7099 C   0  0  0  0  0  0  0  0  0  0  0  0
    2.7602   -2.6877   34.7714 C   0  0  0  0  0  0  0  0  0  0  0  0
    3.5318   -2.0189   33.8177 C   0  0  0  0  0  0  0  0  0  0  0  0
    2.9199   -1.3134   32.7893 C   0  0  0  0  0  0  0  0  0  0  0  0
    1.5349   -1.2876   32.7051 C   0  0  0  0  0  0  0  0  0  0  0  0
    0.7658   -1.9630   33.6554 C   0  0  0  0  0  0  0  0  0  0  0  0
    1.1835   -3.8671   37.0780 C   0  0  0  0  0  0  0  0  0  0  0  0
    1.8343   -5.2512   36.9359 C   0  0  0  0  0  0  0  0  0  0  0  0
    0.9130   -6.3515   36.3905 C   0  0  0  0  0  0  0  0  0  0  0  0
    0.2927   -6.0388   35.0042 C   0  0  1  0  0  0  0  0  0  0  0  0
   -0.6694   -7.1854   34.5829 C   0  0  0  0  0  0  0  0  0  0  0  0
   -0.7996   -7.3585   33.1012 C   0  0  0  0  0  0  0  0  0  0  0  0
   -1.5553   -8.2200   32.4549 N   0  0  0  0  0  0  0  0  0  0  0  0
   -1.3272   -8.0690   31.1071 N   0  0  0  0  0  0  0  0  0  0  0  0
   -0.4440   -7.1099   30.9618 C   0  0  0  0  0  0  0  0  0  0  0  0
   -0.0575   -6.6649   32.1810 N   0  0  0  0  0  0  0  0  0  0  0  0
    0.8864   -5.6250   32.5341 C   0  0  2  0  0  0  0  0  0  0  0  0
    2.3222   -5.4400   31.4349 S   0  0  0  0  0  0  0  0  0  0  0  0
    1.7063   -4.2372   30.3752 C   0  0  0  0  0  0  0  0  0  0  0  0
    0.4519   -4.0592   30.0556 N   0  0  0  0  0  0  0  0  0  0  0  0
    0.4372   -2.8779   29.3546 C   0  0  0  0  0  0  0  0  0  0  0  0
   -0.6446   -2.1618   28.8344 C   0  0  0  0  0  0  0  0  0  0  0  0
   -0.3788   -0.9340   28.2326 C   0  0  0  0  0  0  0  0  0  0  0  0
   -1.3965   -0.1993   27.7659 F   0  0  0  0  0  0  0  0  0  0  0  0
    0.9177   -0.4355   28.1124 C   0  0  0  0  0  0  0  0  0  0  0  0
    2.0158   -1.1558   28.5902 C   0  0  0  0  0  0  0  0  0  0  0  0
    1.7290   -2.3686   29.2164 C   0  0  0  0  0  0  0  0  0  0  0  0
    2.5263   -3.2931   29.8411 N   0  0  0  0  0  0  0  0  0  0  0  0
    1.4163   -5.8993   33.9480 C   0  0  0  0  0  0  0  0  0  0  0  0
  1  2  2  0
  2  3  2  0
  2  4  1  0
  4  5  1  6
  5  6  2  0
  6  7  1  0
  7  8  2  0
  8  9  1  0
  9 10  2  0
  4 11  1  0
 11 12  1  0
 12 13  1  0
 14 13  1  1
 14 15  1  0
 15 16  1  0
 16 17  2  0
 17 18  1  0
 18 19  2  0
 19 20  1  0
 20 21  1  0
 21 22  1  6
 22 23  1  0
 23 24  2  0
 24 25  1  0
 25 26  2  0
 26 27  1  0
 27 28  1  0
 27 29  2  0
 29 30  1  0
 30 31  2  0
 31 32  1  0
 21 33  1  0
 14  2  1  0
 20 16  1  0
 32 23  1  0
 10  5  1  0
 33 14  1  0
 31 25  1  0
M  END
>  <SLURM_JOB_ID>  (62) 
350559

>  <original SMILES>  (62) 
O=S1(=O)[C@H](c2ccccc2)CCC[C@@]12Cc1nncn1[C@H](Sc1nc3cc(F)ccc3[nH]1)C2

>  <tags>  (62) 
Fragmenstein placed

>  <inchikey>  (62) 
NZACALNPKXSTKQ-WPYKKVEZSA-N

>  <scratch_subdir>  (62) 
/opt/xchem-fragalysis-2/maxwin/BulkDock/SCRATCH/350559/C192-P180

>  <name>  (62) 
NZACALNPKXSTKQ-WPYKKVEZSA-N

>  <energy_score>  (62) 
-78.040056

>  <fragmenstein_error>  (62) 
None

>  <csv_name>  (62) 
D68EV3C_iter1_fstein_split1000_batch001.csv

>  <fragmenstein_mode>  (62) 
expansion

>  <HIPPO Compound ID>  (62) 
192

>  <HIPPO Pose ID>  (62) 
2007

>  <ref_mols>  (62) 
B0455a,B1219a

>  <fragmenstein_runtime>  (62) 
6.018028

>  <fragmenstein_outcome>  (62) 
acceptable

>  <distance_score>  (62) 
0.868128

>  <score_inspiration>  (62) 
0.640681

>  <original ID>  (62) 
NZACALNPKXSTKQ-WPYKKVEZSA-N

>  <ref_pdb>  (62) 
B1219a

>  <alias>  (62) 
None

$$$$
2711
     RDKit          3D

 36 41  0  0  0  0  0  0  0  0999 V2000
    2.1661    9.5060   29.9455 C   0  0  0  0  0  0  0  0  0  0  0  0
    1.9724    8.0965   30.4178 C   0  0  0  0  0  0  0  0  0  0  0  0
    2.3576    7.7326   31.7037 C   0  0  0  0  0  0  0  0  0  0  0  0
    2.1621    6.4177   32.1099 C   0  0  0  0  0  0  0  0  0  0  0  0
    1.5888    5.5090   31.2259 C   0  0  0  0  0  0  0  0  0  0  0  0
    1.2299    5.9519   29.9635 C   0  0  0  0  0  0  0  0  0  0  0  0
    0.6599    5.1102   29.0330 N   0  0  0  0  0  0  0  0  0  0  0  0
    0.2042    3.6191   29.1575 C   0  0  0  0  0  0  0  0  0  0  0  0
    0.3167    2.8636   30.0451 O   0  0  0  0  0  0  0  0  0  0  0  0
   -0.4423    3.2817   27.7833 C   0  0  2  0  0  0  0  0  0  0  0  0
   -1.7657    3.9884   27.5208 C   0  0  0  0  0  0  0  0  0  0  0  0
   -2.5416    3.0731   26.5875 C   0  0  0  0  0  0  0  0  0  0  0  0
   -1.5783    1.9437   26.2853 C   0  0  0  0  0  0  0  0  0  0  0  0
   -0.6640    1.8518   27.4402 N   0  0  0  0  0  0  0  0  0  0  0  0
   -1.2733    1.0090   28.4792 C   0  0  0  0  0  0  0  0  0  0  0  0
   -1.4045   -0.3645   28.0567 O   0  0  0  0  0  0  0  0  0  0  0  0
   -0.3629   -1.1370   28.5074 C   0  0  0  0  0  0  0  0  0  0  0  0
    0.9627   -0.8301   28.1849 C   0  0  0  0  0  0  0  0  0  0  0  0
    2.0246   -1.5623   28.7137 C   0  0  0  0  0  0  0  0  0  0  0  0
    1.6829   -2.5966   29.5808 C   0  0  0  0  0  0  0  0  0  0  0  0
    2.4489   -3.4471   30.3270 N   0  0  0  0  0  0  0  0  0  0  0  0
    1.6094   -4.2351   31.0554 C   0  0  0  0  0  0  0  0  0  0  0  0
    2.3064   -5.3550   32.1575 S   0  0  0  0  0  0  0  0  0  0  0  0
    0.9002   -5.9864   32.9426 C   0  0  0  0  0  0  0  0  0  0  0  0
    0.7426   -5.8043   34.2712 C   0  0  0  0  0  0  0  0  0  0  0  0
   -0.3530   -6.4613   34.9658 C   0  0  0  0  0  0  0  0  0  0  0  0
   -1.2016   -7.2770   34.3149 C   0  0  0  0  0  0  0  0  0  0  0  0
   -1.0587   -7.4711   32.9155 C   0  0  0  0  0  0  0  0  0  0  0  0
   -1.7289   -8.1955   32.0438 N   0  0  0  0  0  0  0  0  0  0  0  0
   -1.1498   -8.0225   30.8121 N   0  0  0  0  0  0  0  0  0  0  0  0
   -0.1374   -7.2002   30.9668 C   0  0  0  0  0  0  0  0  0  0  0  0
   -0.0199   -6.8106   32.2752 N   0  0  0  0  0  0  0  0  0  0  0  0
    0.3487   -4.0071   30.7852 N   0  0  0  0  0  0  0  0  0  0  0  0
    0.3712   -2.9586   29.8847 C   0  0  0  0  0  0  0  0  0  0  0  0
   -0.6835   -2.2381   29.3089 C   0  0  0  0  0  0  0  0  0  0  0  0
    1.4165    7.2217   29.5463 N   0  0  0  0  0  0  0  0  0  0  0  0
  1  2  1  0
  2  3  2  0
  3  4  1  0
  4  5  2  0
  5  6  1  0
  6  7  1  0
  7  8  1  0
  8  9  2  0
 10  8  1  1
 10 11  1  0
 11 12  1  0
 12 13  1  0
 13 14  1  0
 14 15  1  0
 15 16  1  0
 16 17  1  0
 17 18  2  0
 18 19  1  0
 19 20  2  0
 20 21  1  0
 21 22  1  0
 22 23  1  0
 23 24  1  0
 24 25  2  0
 25 26  1  0
 26 27  2  0
 27 28  1  0
 28 29  2  0
 29 30  1  0
 30 31  2  0
 31 32  1  0
 22 33  2  0
 33 34  1  0
 34 35  2  0
  6 36  2  0
 36  2  1  0
 14 10  1  0
 35 17  1  0
 34 20  1  0
 32 24  1  0
 32 28  1  0
M  END
>  <SLURM_JOB_ID>  (63) 
350558

>  <original SMILES>  (63) 
Cc1cccc(NC(=O)[C@@H]2CCCN2COc2ccc3[nH]c(Sc4cccc5nncn45)nc3c2)n1

>  <tags>  (63) 
Fragmenstein placed

>  <inchikey>  (63) 
HJOQAPPBMNRIHP-FQEVSTJZSA-N

>  <scratch_subdir>  (63) 
/opt/xchem-fragalysis-2/maxwin/BulkDock/SCRATCH/350558/C182-P44

>  <name>  (63) 
HJOQAPPBMNRIHP-FQEVSTJZSA-N

>  <energy_score>  (63) 
-59.184308

>  <fragmenstein_error>  (63) 
None

>  <csv_name>  (63) 
D68EV3C_iter1_fstein_split1000_batch000.csv

>  <fragmenstein_mode>  (63) 
expansion

>  <HIPPO Compound ID>  (63) 
182

>  <HIPPO Pose ID>  (63) 
2711

>  <ref_mols>  (63) 
7gp2-a,B1219a

>  <fragmenstein_runtime>  (63) 
7.432383

>  <fragmenstein_outcome>  (63) 
acceptable

>  <distance_score>  (63) 
0.936502

>  <score_inspiration>  (63) 
0.628979

>  <original ID>  (63) 
HJOQAPPBMNRIHP-FQEVSTJZSA-N

>  <ref_pdb>  (63) 
7gp2-a

>  <alias>  (63) 
None

$$$$
2722
     RDKit          3D

 36 41  0  0  0  0  0  0  0  0999 V2000
    3.7327    8.9987   29.5029 C   0  0  0  0  0  0  0  0  0  0  0  0
    2.9890    7.8530   30.1208 C   0  0  0  0  0  0  0  0  0  0  0  0
    2.9948    7.6815   31.5011 C   0  0  0  0  0  0  0  0  0  0  0  0
    2.2909    6.6118   32.0421 C   0  0  0  0  0  0  0  0  0  0  0  0
    1.6059    5.7477   31.1938 C   0  0  0  0  0  0  0  0  0  0  0  0
    1.6520    5.9869   29.8305 C   0  0  0  0  0  0  0  0  0  0  0  0
    0.9984    5.1752   28.9293 N   0  0  0  0  0  0  0  0  0  0  0  0
    0.2800    3.8019   29.1360 C   0  0  0  0  0  0  0  0  0  0  0  0
    0.0710    3.1960   30.1153 O   0  0  0  0  0  0  0  0  0  0  0  0
   -0.1286    3.3413   27.7047 C   0  0  2  0  0  0  0  0  0  0  0  0
   -1.1316    4.2951   27.0582 C   0  0  0  0  0  0  0  0  0  0  0  0
   -1.8304    3.4326   26.0294 C   0  0  0  0  0  0  0  0  0  0  0  0
   -1.9636    2.1206   26.7677 C   0  0  0  0  0  0  0  0  0  0  0  0
   -0.6983    1.9818   27.5021 N   0  0  0  0  0  0  0  0  0  0  0  0
   -0.8635    1.1050   28.6558 C   0  0  0  0  0  0  0  0  0  0  0  0
   -1.1901   -0.2368   28.2387 O   0  0  0  0  0  0  0  0  0  0  0  0
   -0.1921   -1.1162   28.5747 C   0  0  0  0  0  0  0  0  0  0  0  0
    1.1261   -0.9092   28.1521 C   0  0  0  0  0  0  0  0  0  0  0  0
    2.1676   -1.7109   28.6151 C   0  0  0  0  0  0  0  0  0  0  0  0
    1.8122   -2.7060   29.5218 C   0  0  0  0  0  0  0  0  0  0  0  0
    2.5648   -3.5844   30.2498 N   0  0  0  0  0  0  0  0  0  0  0  0
    1.7188   -4.2922   31.0493 C   0  0  0  0  0  0  0  0  0  0  0  0
    2.3960   -5.3955   32.1785 S   0  0  0  0  0  0  0  0  0  0  0  0
    0.9720   -6.0113   32.9457 C   0  0  0  0  0  0  0  0  0  0  0  0
    0.8126   -5.8481   34.2767 C   0  0  0  0  0  0  0  0  0  0  0  0
   -0.2975   -6.4950   34.9580 C   0  0  0  0  0  0  0  0  0  0  0  0
   -1.1559   -7.2886   34.2931 C   0  0  0  0  0  0  0  0  0  0  0  0
   -1.0070   -7.4675   32.8919 C   0  0  0  0  0  0  0  0  0  0  0  0
   -1.6714   -8.1862   32.0123 N   0  0  0  0  0  0  0  0  0  0  0  0
   -1.0851   -8.0086   30.7852 N   0  0  0  0  0  0  0  0  0  0  0  0
   -0.0771   -7.1826   30.9468 C   0  0  0  0  0  0  0  0  0  0  0  0
    0.0404   -6.8094   32.2612 N   0  0  0  0  0  0  0  0  0  0  0  0
    0.4617   -4.0021   30.8303 N   0  0  0  0  0  0  0  0  0  0  0  0
    0.5004   -2.9764   29.9089 C   0  0  0  0  0  0  0  0  0  0  0  0
   -0.5382   -2.1927   29.3947 C   0  0  0  0  0  0  0  0  0  0  0  0
    2.3282    7.0184   29.2832 N   0  0  0  0  0  0  0  0  0  0  0  0
  1  2  1  0
  2  3  2  0
  3  4  1  0
  4  5  2  0
  5  6  1  0
  6  7  1  0
  7  8  1  0
  8  9  2  0
 10  8  1  1
 10 11  1  0
 11 12  1  0
 12 13  1  0
 13 14  1  0
 14 15  1  0
 15 16  1  0
 16 17  1  0
 17 18  2  0
 18 19  1  0
 19 20  2  0
 20 21  1  0
 21 22  1  0
 22 23  1  0
 23 24  1  0
 24 25  2  0
 25 26  1  0
 26 27  2  0
 27 28  1  0
 28 29  2  0
 29 30  1  0
 30 31  2  0
 31 32  1  0
 22 33  2  0
 33 34  1  0
 34 35  2  0
  6 36  2  0
 36  2  1  0
 14 10  1  0
 35 17  1  0
 34 20  1  0
 32 24  1  0
 32 28  1  0
M  END
>  <SLURM_JOB_ID>  (64) 
350558

>  <original SMILES>  (64) 
Cc1cccc(NC(=O)[C@@H]2CCCN2COc2ccc3[nH]c(Sc4cccc5nncn45)nc3c2)n1

>  <tags>  (64) 
Fragmenstein placed

>  <inchikey>  (64) 
HJOQAPPBMNRIHP-FQEVSTJZSA-N

>  <scratch_subdir>  (64) 
/opt/xchem-fragalysis-2/maxwin/BulkDock/SCRATCH/350558/C182-P180

>  <name>  (64) 
HJOQAPPBMNRIHP-FQEVSTJZSA-N

>  <energy_score>  (64) 
-59.523179

>  <fragmenstein_error>  (64) 
None

>  <csv_name>  (64) 
D68EV3C_iter1_fstein_split1000_batch000.csv

>  <fragmenstein_mode>  (64) 
expansion

>  <HIPPO Compound ID>  (64) 
182

>  <HIPPO Pose ID>  (64) 
2722

>  <ref_mols>  (64) 
7gp2-a,B1219a

>  <fragmenstein_runtime>  (64) 
7.082431

>  <fragmenstein_outcome>  (64) 
acceptable

>  <distance_score>  (64) 
0.911628

>  <score_inspiration>  (64) 
0.617853

>  <original ID>  (64) 
HJOQAPPBMNRIHP-FQEVSTJZSA-N

>  <ref_pdb>  (64) 
B1219a

>  <alias>  (64) 
None

$$$$
2873
     RDKit          3D

 19 20  0  0  0  0  0  0  0  0999 V2000
   -0.7545   -6.5125   34.9662 C   0  0  0  0  0  0  0  0  0  0  0  0
   -0.5074   -6.7655   33.5259 C   0  0  0  0  0  0  0  0  0  0  0  0
   -1.1879   -7.7032   32.8659 C   0  0  0  0  0  0  0  0  0  0  0  0
   -0.9262   -7.8883   31.4304 C   0  0  0  0  0  0  0  0  0  0  0  0
   -1.5239   -8.7839   30.8505 O   0  0  0  0  0  0  0  0  0  0  0  0
   -0.0533   -7.0401   30.7892 N   0  0  0  0  0  0  0  0  0  0  0  0
    0.5672   -6.1492   31.4965 C   0  0  0  0  0  0  0  0  0  0  0  0
    1.4905   -5.1987   30.7692 C   0  0  0  0  0  0  0  0  0  0  0  0
    0.7109   -3.9699   30.3471 C   0  0  0  0  0  0  0  0  0  0  0  0
    0.4360   -3.1500   31.5461 N   0  0  0  0  0  0  0  0  0  0  0  0
   -1.0813   -2.4035   31.6135 S   0  0  0  0  0  0  0  0  0  0  0  0
   -2.0909   -3.4201   31.4151 O   0  0  0  0  0  0  0  0  0  0  0  0
   -1.0609   -1.5533   32.7804 O   0  0  0  0  0  0  0  0  0  0  0  0
   -1.1544   -1.3627   30.2011 C   0  0  0  0  0  0  0  0  0  0  0  0
   -1.5336   -1.5439   28.8867 C   0  0  0  0  0  0  0  0  0  0  0  0
   -1.3153   -0.3548   28.1388 C   0  0  0  0  0  0  0  0  0  0  0  0
   -0.7797    0.6711   28.7953 N   0  0  0  0  0  0  0  0  0  0  0  0
   -0.5498    0.2177   30.3730 S   0  0  0  0  0  0  0  0  0  0  0  0
    0.4194   -6.0084   32.8531 N   0  0  0  0  0  0  0  0  0  0  0  0
  1  2  1  0
  2  3  2  0
  3  4  1  0
  4  5  2  0
  4  6  1  0
  6  7  2  0
  7  8  1  0
  8  9  1  0
  9 10  1  0
 10 11  1  0
 11 12  2  0
 11 13  2  0
 11 14  1  0
 14 15  2  0
 15 16  1  0
 16 17  2  0
 17 18  1  0
  7 19  1  0
 19  2  1  0
 18 14  1  0
M  END
>  <SLURM_JOB_ID>  (65) 
350559

>  <original SMILES>  (65) 
Cc1cc(=O)nc(CCNS(=O)(=O)c2ccns2)[nH]1

>  <tags>  (65) 
Fragmenstein placed

>  <inchikey>  (65) 
XAJDCZGWKOCIFY-UHFFFAOYSA-N

>  <scratch_subdir>  (65) 
/opt/xchem-fragalysis-2/maxwin/BulkDock/SCRATCH/350559/C257-P147

>  <name>  (65) 
XAJDCZGWKOCIFY-UHFFFAOYSA-N

>  <energy_score>  (65) 
-54.300442

>  <fragmenstein_error>  (65) 
None

>  <csv_name>  (65) 
D68EV3C_iter1_fstein_split1000_batch001.csv

>  <fragmenstein_mode>  (65) 
expansion

>  <HIPPO Compound ID>  (65) 
257

>  <HIPPO Pose ID>  (65) 
2873

>  <ref_mols>  (65) 
B0723a,B1307a

>  <fragmenstein_runtime>  (65) 
2.929442

>  <fragmenstein_outcome>  (65) 
acceptable

>  <distance_score>  (65) 
0.973795

>  <score_inspiration>  (65) 
0.862928

>  <original ID>  (65) 
XAJDCZGWKOCIFY-UHFFFAOYSA-N

>  <ref_pdb>  (65) 
B0723a

>  <alias>  (65) 
None

$$$$
3293
     RDKit          3D

 35 37  0  0  0  0  0  0  0  0999 V2000
   -2.8857    2.8877   26.8902 C   0  0  0  0  0  0  0  0  0  0  0  0
   -1.4270    2.5202   26.7371 C   0  0  0  0  0  0  0  0  0  0  0  0
   -0.5316    3.7548   26.6288 C   0  0  0  0  0  0  0  0  0  0  0  0
   -0.9154    4.8424   26.4540 O   0  0  0  0  0  0  0  0  0  0  0  0
    0.9038    3.2242   26.8776 N   0  0  0  0  0  0  0  0  0  0  0  0
    2.1312    3.8901   26.8683 C   0  0  0  0  0  0  0  0  0  0  0  0
    2.3289    5.2117   26.4491 C   0  0  0  0  0  0  0  0  0  0  0  0
    1.3514    6.0702   26.0365 O   0  0  0  0  0  0  0  0  0  0  0  0
    3.6180    5.7443   26.3983 C   0  0  0  0  0  0  0  0  0  0  0  0
    4.7259    4.9767   26.7717 C   0  0  0  0  0  0  0  0  0  0  0  0
    6.1025    5.5719   26.7462 C   0  0  0  0  0  0  0  0  0  0  0  0
    4.5256    3.6693   27.2369 C   0  0  0  0  0  0  0  0  0  0  0  0
    3.2413    3.1107   27.2883 C   0  0  0  0  0  0  0  0  0  0  0  0
    3.0634    1.7926   27.7816 N   0  0  0  0  0  0  0  0  0  0  0  0
    2.3976    1.6688   29.1045 C   0  0  0  0  0  0  0  0  0  0  0  0
    2.7629    0.3125   29.7678 C   0  0  1  0  0  0  0  0  0  0  0  0
    1.7168   -0.2156   30.7758 C   0  0  0  0  0  0  0  0  0  0  0  0
    0.4980   -0.8124   30.1358 N   0  0  0  0  0  0  0  0  0  0  0  0
   -0.3973   -1.8668   31.1117 S   0  0  0  0  0  0  0  0  0  0  0  0
   -1.6110   -2.3033   30.4692 O   0  0  0  0  0  0  0  0  0  0  0  0
   -0.4220   -1.3146   32.4456 O   0  0  0  0  0  0  0  0  0  0  0  0
    0.6432   -3.1810   31.1818 N   0  0  0  0  0  0  0  0  0  0  0  0
    0.4857   -4.2311   30.1384 C   0  0  0  0  0  0  0  0  0  0  0  0
    1.3642   -5.4296   30.4798 C   0  0  0  0  0  0  0  0  0  0  0  0
    0.6452   -6.2473   31.5105 C   0  0  0  0  0  0  0  0  0  0  0  0
    0.8147   -5.8966   32.8010 N   0  0  0  0  0  0  0  0  0  0  0  0
    0.0168   -6.4966   33.7059 C   0  0  0  0  0  0  0  0  0  0  0  0
    0.1766   -6.1040   35.1438 C   0  0  0  0  0  0  0  0  0  0  0  0
   -0.9379   -7.4197   33.3401 C   0  0  0  0  0  0  0  0  0  0  0  0
   -1.0168   -7.7045   32.0001 C   0  0  0  0  0  0  0  0  0  0  0  0
   -1.9410   -8.5718   31.5039 O   0  0  0  0  0  0  0  0  0  0  0  0
   -0.2534   -7.1371   31.0655 N   0  0  0  0  0  0  0  0  0  0  0  0
    0.6801   -1.1369   28.6987 C   0  0  0  0  0  0  0  0  0  0  0  0
    2.1201   -1.5916   28.4276 C   0  0  0  0  0  0  0  0  0  0  0  0
    3.1423   -0.6541   28.7714 O   0  0  0  0  0  0  0  0  0  0  0  0
  1  2  1  0
  2  3  1  0
  3  4  2  0
  3  5  1  0
  5  6  1  0
  6  7  2  0
  7  8  1  0
  7  9  1  0
  9 10  2  0
 10 11  1  0
 10 12  1  0
 12 13  2  0
 13 14  1  0
 14 15  1  0
 16 15  1  6
 16 17  1  0
 17 18  1  0
 18 19  1  0
 19 20  2  0
 19 21  2  0
 19 22  1  0
 22 23  1  0
 23 24  1  0
 24 25  1  0
 25 26  2  0
 26 27  1  0
 27 28  1  0
 27 29  2  0
 29 30  1  0
 30 31  1  0
 30 32  2  0
 18 33  1  0
 33 34  1  0
 34 35  1  0
 13  6  1  0
 35 16  1  0
 32 25  1  0
M  END
>  <SLURM_JOB_ID>  (66) 
350558

>  <original SMILES>  (66) 
CCC(=O)Nc1c(O)cc(C)cc1NC[C@H]1CN(S(=O)(=O)NCCc2nc(C)cc(O)n2)CCO1

>  <tags>  (66) 
Fragmenstein placed

>  <inchikey>  (66) 
YKIMBTGFQQLBDR-INIZCTEOSA-N

>  <scratch_subdir>  (66) 
/opt/xchem-fragalysis-2/maxwin/BulkDock/SCRATCH/350558/C635-P53

>  <name>  (66) 
YKIMBTGFQQLBDR-INIZCTEOSA-N

>  <energy_score>  (66) 
-65.03552

>  <fragmenstein_error>  (66) 
None

>  <csv_name>  (66) 
D68EV3C_iter1_fstein_split1000_batch000.csv

>  <fragmenstein_mode>  (66) 
expansion

>  <HIPPO Compound ID>  (66) 
635

>  <HIPPO Pose ID>  (66) 
3293

>  <ref_mols>  (66) 
7gpf-a,B1460a

>  <fragmenstein_runtime>  (66) 
5.504379

>  <fragmenstein_outcome>  (66) 
acceptable

>  <distance_score>  (66) 
0.928683

>  <score_inspiration>  (66) 
0.571937

>  <original ID>  (66) 
YKIMBTGFQQLBDR-INIZCTEOSA-N

>  <ref_pdb>  (66) 
7gpf-a

>  <alias>  (66) 
None

$$$$
3641
     RDKit          3D

 26 28  0  0  0  0  0  0  0  0999 V2000
    2.6020   -7.6533   38.1190 C   0  0  0  0  0  0  0  0  0  0  0  0
    1.5267   -6.7247   38.6492 C   0  0  2  0  0  0  0  0  0  0  0  0
    1.1282   -7.0123   40.0841 C   0  0  0  0  0  0  0  0  0  0  0  0
   -0.2018   -6.2869   40.1904 C   0  0  0  0  0  0  0  0  0  0  0  0
   -0.7344   -6.1728   38.8581 O   0  0  0  0  0  0  0  0  0  0  0  0
    0.1689   -6.8482   37.9726 C   0  0  1  0  0  0  0  0  0  0  0  0
    0.0776   -6.2764   36.5836 C   0  0  0  0  0  0  0  0  0  0  0  0
   -0.2631   -7.0797   35.5659 C   0  0  0  0  0  0  0  0  0  0  0  0
   -0.4289   -6.8132   34.1317 C   0  0  0  0  0  0  0  0  0  0  0  0
   -1.3444   -7.6268   33.5137 C   0  0  0  0  0  0  0  0  0  0  0  0
   -1.3610   -7.5714   32.1572 C   0  0  0  0  0  0  0  0  0  0  0  0
   -2.1837   -8.4048   31.4666 O   0  0  0  0  0  0  0  0  0  0  0  0
   -0.5932   -6.7662   31.4195 N   0  0  0  0  0  0  0  0  0  0  0  0
    0.2329   -5.9555   32.1062 C   0  0  0  0  0  0  0  0  0  0  0  0
    1.1189   -5.0571   31.2792 C   0  0  0  0  0  0  0  0  0  0  0  0
    0.3600   -3.9132   30.6189 C   0  0  0  0  0  0  0  0  0  0  0  0
    0.1042   -2.8078   31.5695 N   0  0  0  0  0  0  0  0  0  0  0  0
   -1.3695   -2.0157   31.4658 S   0  0  0  0  0  0  0  0  0  0  0  0
   -2.3871   -3.0274   31.3118 O   0  0  0  0  0  0  0  0  0  0  0  0
   -1.3946   -1.1005   32.5818 O   0  0  0  0  0  0  0  0  0  0  0  0
   -1.2180   -1.1281   30.0797 N   0  0  0  0  0  0  0  0  0  0  0  0
   -0.3857    0.0790   30.0776 C   0  0  0  0  0  0  0  0  0  0  0  0
   -0.5282    0.5983   28.6580 C   0  0  0  0  0  0  0  0  0  0  0  0
   -0.5788   -0.6745   27.8321 C   0  0  0  0  0  0  0  0  0  0  0  0
   -1.2544   -1.7103   28.7273 C   0  0  0  0  0  0  0  0  0  0  0  0
    0.3708   -5.9562   33.4558 N   0  0  0  0  0  0  0  0  0  0  0  0
  2  1  1  6
  2  3  1  0
  3  4  1  0
  4  5  1  0
  6  5  1  1
  6  7  1  0
  7  8  2  3
  8  9  1  0
  9 10  2  0
 10 11  1  0
 11 12  1  0
 11 13  2  0
 13 14  1  0
 14 15  1  0
 15 16  1  0
 16 17  1  0
 17 18  1  0
 18 19  2  0
 18 20  2  0
 18 21  1  0
 21 22  1  0
 22 23  1  0
 23 24  1  0
 24 25  1  0
 14 26  2  0
  6  2  1  0
 26  9  1  0
 25 21  1  0
M  END
>  <SLURM_JOB_ID>  (67) 
350559

>  <original SMILES>  (67) 
C[C@@H]1CCO[C@H]1C=Cc1cc(O)nc(CCNS(=O)(=O)N2CCCC2)n1

>  <tags>  (67) 
Fragmenstein placed

>  <inchikey>  (67) 
YULRZOPAMNFEQI-HIFRSBDPSA-N

>  <scratch_subdir>  (67) 
/opt/xchem-fragalysis-2/maxwin/BulkDock/SCRATCH/350559/C294-P158

>  <name>  (67) 
YULRZOPAMNFEQI-HIFRSBDPSA-N

>  <energy_score>  (67) 
-93.559988

>  <fragmenstein_error>  (67) 
None

>  <csv_name>  (67) 
D68EV3C_iter1_fstein_split1000_batch001.csv

>  <fragmenstein_mode>  (67) 
expansion

>  <HIPPO Compound ID>  (67) 
294

>  <HIPPO Pose ID>  (67) 
3641

>  <ref_mols>  (67) 
B0875a,B1361a

>  <fragmenstein_runtime>  (67) 
18.719122

>  <fragmenstein_outcome>  (67) 
acceptable

>  <distance_score>  (67) 
0.947268

>  <score_inspiration>  (67) 
0.653364

>  <original ID>  (67) 
YULRZOPAMNFEQI-HIFRSBDPSA-N

>  <ref_pdb>  (67) 
B0875a

>  <alias>  (67) 
None

$$$$
3658
     RDKit          3D

 26 28  0  0  0  0  0  0  0  0999 V2000
    2.7036   -7.6409   37.9730 C   0  0  0  0  0  0  0  0  0  0  0  0
    1.6391   -6.7027   38.5077 C   0  0  2  0  0  0  0  0  0  0  0  0
    1.2504   -6.9861   39.9467 C   0  0  0  0  0  0  0  0  0  0  0  0
   -0.0717   -6.2501   40.0632 C   0  0  0  0  0  0  0  0  0  0  0  0
   -0.6149   -6.1363   38.7351 O   0  0  0  0  0  0  0  0  0  0  0  0
    0.2757   -6.8174   37.8397 C   0  0  1  0  0  0  0  0  0  0  0  0
    0.1746   -6.2463   36.4492 C   0  0  0  0  0  0  0  0  0  0  0  0
   -0.1971   -7.0348   35.4289 C   0  0  0  0  0  0  0  0  0  0  0  0
   -0.3436   -6.7613   33.9890 C   0  0  0  0  0  0  0  0  0  0  0  0
   -1.2588   -7.5569   33.3444 C   0  0  0  0  0  0  0  0  0  0  0  0
   -1.2589   -7.5017   31.9852 C   0  0  0  0  0  0  0  0  0  0  0  0
   -2.0858   -8.3142   31.2706 O   0  0  0  0  0  0  0  0  0  0  0  0
   -0.4691   -6.7039   31.2687 N   0  0  0  0  0  0  0  0  0  0  0  0
    0.3543   -5.9070   31.9754 C   0  0  0  0  0  0  0  0  0  0  0  0
    1.2284   -4.9826   31.1653 C   0  0  0  0  0  0  0  0  0  0  0  0
    0.4243   -3.8507   30.5262 C   0  0  0  0  0  0  0  0  0  0  0  0
    0.1368   -2.7773   31.5104 N   0  0  0  0  0  0  0  0  0  0  0  0
   -1.3871   -2.0833   31.4977 S   0  0  0  0  0  0  0  0  0  0  0  0
   -2.3487   -3.1463   31.3293 O   0  0  0  0  0  0  0  0  0  0  0  0
   -1.4308   -1.2294   32.6627 O   0  0  0  0  0  0  0  0  0  0  0  0
   -1.3468   -1.1115   30.1647 N   0  0  0  0  0  0  0  0  0  0  0  0
   -0.6021    0.1501   30.2077 C   0  0  0  0  0  0  0  0  0  0  0  0
   -0.9430    0.7827   28.8722 C   0  0  0  0  0  0  0  0  0  0  0  0
   -0.9305   -0.4072   27.9323 C   0  0  0  0  0  0  0  0  0  0  0  0
   -1.3985   -1.5948   28.7737 C   0  0  0  0  0  0  0  0  0  0  0  0
    0.4703   -5.9077   33.3298 N   0  0  0  0  0  0  0  0  0  0  0  0
  2  1  1  6
  2  3  1  0
  3  4  1  0
  4  5  1  0
  6  5  1  1
  6  7  1  0
  7  8  2  3
  8  9  1  0
  9 10  2  0
 10 11  1  0
 11 12  1  0
 11 13  2  0
 13 14  1  0
 14 15  1  0
 15 16  1  0
 16 17  1  0
 17 18  1  0
 18 19  2  0
 18 20  2  0
 18 21  1  0
 21 22  1  0
 22 23  1  0
 23 24  1  0
 24 25  1  0
 14 26  2  0
  6  2  1  0
 26  9  1  0
 25 21  1  0
M  END
>  <SLURM_JOB_ID>  (68) 
350559

>  <original SMILES>  (68) 
C[C@@H]1CCO[C@H]1C=Cc1cc(O)nc(CCNS(=O)(=O)N2CCCC2)n1

>  <tags>  (68) 
Fragmenstein placed

>  <inchikey>  (68) 
YULRZOPAMNFEQI-HIFRSBDPSA-N

>  <scratch_subdir>  (68) 
/opt/xchem-fragalysis-2/maxwin/BulkDock/SCRATCH/350559/C294-P188

>  <name>  (68) 
YULRZOPAMNFEQI-HIFRSBDPSA-N

>  <energy_score>  (68) 
-93.781099

>  <fragmenstein_error>  (68) 
None

>  <csv_name>  (68) 
D68EV3C_iter1_fstein_split1000_batch001.csv

>  <fragmenstein_mode>  (68) 
expansion

>  <HIPPO Compound ID>  (68) 
294

>  <HIPPO Pose ID>  (68) 
3658

>  <ref_mols>  (68) 
B0875a,B1361a

>  <fragmenstein_runtime>  (68) 
12.450366

>  <fragmenstein_outcome>  (68) 
acceptable

>  <distance_score>  (68) 
0.860541

>  <score_inspiration>  (68) 
0.67934

>  <original ID>  (68) 
YULRZOPAMNFEQI-HIFRSBDPSA-N

>  <ref_pdb>  (68) 
B1361a

>  <alias>  (68) 
None

$$$$
3963
     RDKit          3D

 21 22  0  0  0  0  0  0  0  0999 V2000
   -0.5481   -6.7354   35.4722 C   0  0  0  0  0  0  0  0  0  0  0  0
   -0.3991   -6.8482   33.9874 C   0  0  0  0  0  0  0  0  0  0  0  0
   -1.1833   -7.7066   33.2568 C   0  0  0  0  0  0  0  0  0  0  0  0
   -0.8817   -7.7778   31.9252 C   0  0  0  0  0  0  0  0  0  0  0  0
   -1.4137   -8.7460   31.1433 O   0  0  0  0  0  0  0  0  0  0  0  0
    0.0200   -7.0349   31.2883 N   0  0  0  0  0  0  0  0  0  0  0  0
    0.6328   -6.1298   32.0613 C   0  0  0  0  0  0  0  0  0  0  0  0
    1.5599   -5.1645   31.3952 C   0  0  0  0  0  0  0  0  0  0  0  0
    1.5139   -3.7827   32.0352 C   0  0  0  0  0  0  0  0  0  0  0  0
    0.8332   -2.8111   31.1269 N   0  0  0  0  0  0  0  0  0  0  0  0
    1.6627   -1.6152   30.8944 C   0  0  0  0  0  0  0  0  0  0  0  0
   -0.7948   -2.5368   31.5543 S   0  0  0  0  0  0  0  0  0  0  0  0
   -1.5011   -3.7904   31.4046 O   0  0  0  0  0  0  0  0  0  0  0  0
   -0.8066   -1.8176   32.8067 O   0  0  0  0  0  0  0  0  0  0  0  0
   -1.2926   -1.5226   30.3553 N   0  0  0  0  0  0  0  0  0  0  0  0
   -1.2997   -0.0714   30.4867 C   0  0  0  0  0  0  0  0  0  0  0  0
   -0.6441    0.4461   29.2234 C   0  0  0  0  0  0  0  0  0  0  0  0
   -0.9373   -0.6081   28.1639 C   0  0  2  0  0  0  0  0  0  0  0  0
   -2.0321   -0.1830   27.2966 N   0  0  0  0  0  0  0  0  0  0  0  0
   -1.2464   -1.9095   28.9393 C   0  0  0  0  0  0  0  0  0  0  0  0
    0.5381   -6.0798   33.4031 N   0  0  0  0  0  0  0  0  0  0  0  0
  1  2  1  0
  2  3  2  0
  3  4  1  0
  4  5  1  0
  4  6  2  0
  6  7  1  0
  7  8  1  0
  8  9  1  0
  9 10  1  0
 10 11  1  0
 10 12  1  0
 12 13  2  0
 12 14  2  0
 12 15  1  0
 15 16  1  0
 16 17  1  0
 17 18  1  0
 18 19  1  1
 18 20  1  0
  7 21  2  0
 21  2  1  0
 20 15  1  0
M  END
>  <SLURM_JOB_ID>  (69) 
350559

>  <original SMILES>  (69) 
Cc1cc(O)nc(CCN(C)S(=O)(=O)N2CC[C@H](N)C2)n1

>  <tags>  (69) 
Fragmenstein placed

>  <inchikey>  (69) 
ARJRRNVYNBTWSC-JTQLQIEISA-N

>  <scratch_subdir>  (69) 
/opt/xchem-fragalysis-2/maxwin/BulkDock/SCRATCH/350559/C321-P141

>  <name>  (69) 
ARJRRNVYNBTWSC-JTQLQIEISA-N

>  <energy_score>  (69) 
-52.985761

>  <fragmenstein_error>  (69) 
None

>  <csv_name>  (69) 
D68EV3C_iter1_fstein_split1000_batch001.csv

>  <fragmenstein_mode>  (69) 
expansion

>  <HIPPO Compound ID>  (69) 
321

>  <HIPPO Pose ID>  (69) 
3963

>  <ref_mols>  (69) 
B0525a,B1368a

>  <fragmenstein_runtime>  (69) 
2.504271

>  <fragmenstein_outcome>  (69) 
acceptable

>  <distance_score>  (69) 
0.824717

>  <score_inspiration>  (69) 
0.806178

>  <original ID>  (69) 
ARJRRNVYNBTWSC-JTQLQIEISA-N

>  <ref_pdb>  (69) 
B0525a

>  <alias>  (69) 
None

$$$$
3965
     RDKit          3D

 21 22  0  0  0  0  0  0  0  0999 V2000
   -0.4988   -6.7846   35.4490 C   0  0  0  0  0  0  0  0  0  0  0  0
   -0.3540   -6.9220   33.9658 C   0  0  0  0  0  0  0  0  0  0  0  0
   -1.1304   -7.8022   33.2537 C   0  0  0  0  0  0  0  0  0  0  0  0
   -0.8489   -7.8782   31.9180 C   0  0  0  0  0  0  0  0  0  0  0  0
   -1.3844   -8.8581   31.1516 O   0  0  0  0  0  0  0  0  0  0  0  0
    0.0274   -7.1207   31.2627 N   0  0  0  0  0  0  0  0  0  0  0  0
    0.6369   -6.1985   32.0193 C   0  0  0  0  0  0  0  0  0  0  0  0
    1.5308   -5.2169   31.3278 C   0  0  0  0  0  0  0  0  0  0  0  0
    1.5427   -3.8568   32.0199 C   0  0  0  0  0  0  0  0  0  0  0  0
    0.8936   -2.8217   31.1579 N   0  0  0  0  0  0  0  0  0  0  0  0
    1.7405   -1.6241   31.0144 C   0  0  0  0  0  0  0  0  0  0  0  0
   -0.7437   -2.5517   31.5597 S   0  0  0  0  0  0  0  0  0  0  0  0
   -1.4529   -3.7950   31.3492 O   0  0  0  0  0  0  0  0  0  0  0  0
   -0.7820   -1.8781   32.8365 O   0  0  0  0  0  0  0  0  0  0  0  0
   -1.2131   -1.4909   30.3824 N   0  0  0  0  0  0  0  0  0  0  0  0
   -1.2018   -0.0415   30.5743 C   0  0  0  0  0  0  0  0  0  0  0  0
   -0.4720    0.5152   29.3698 C   0  0  0  0  0  0  0  0  0  0  0  0
   -0.7364   -0.4844   28.2526 C   0  0  2  0  0  0  0  0  0  0  0  0
   -1.8163   -0.0140   27.3949 N   0  0  0  0  0  0  0  0  0  0  0  0
   -1.0595   -1.8222   28.9559 C   0  0  0  0  0  0  0  0  0  0  0  0
    0.5600   -6.1409   33.3622 N   0  0  0  0  0  0  0  0  0  0  0  0
  1  2  1  0
  2  3  2  0
  3  4  1  0
  4  5  1  0
  4  6  2  0
  6  7  1  0
  7  8  1  0
  8  9  1  0
  9 10  1  0
 10 11  1  0
 10 12  1  0
 12 13  2  0
 12 14  2  0
 12 15  1  0
 15 16  1  0
 16 17  1  0
 17 18  1  0
 18 19  1  1
 18 20  1  0
  7 21  2  0
 21  2  1  0
 20 15  1  0
M  END
>  <SLURM_JOB_ID>  (70) 
350559

>  <original SMILES>  (70) 
Cc1cc(O)nc(CCN(C)S(=O)(=O)N2CC[C@H](N)C2)n1

>  <tags>  (70) 
Fragmenstein placed

>  <inchikey>  (70) 
ARJRRNVYNBTWSC-JTQLQIEISA-N

>  <scratch_subdir>  (70) 
/opt/xchem-fragalysis-2/maxwin/BulkDock/SCRATCH/350559/C321-P190

>  <name>  (70) 
ARJRRNVYNBTWSC-JTQLQIEISA-N

>  <energy_score>  (70) 
-52.677088

>  <fragmenstein_error>  (70) 
None

>  <csv_name>  (70) 
D68EV3C_iter1_fstein_split1000_batch001.csv

>  <fragmenstein_mode>  (70) 
expansion

>  <HIPPO Compound ID>  (70) 
321

>  <HIPPO Pose ID>  (70) 
3965

>  <ref_mols>  (70) 
B0525a,B1368a

>  <fragmenstein_runtime>  (70) 
2.432239

>  <fragmenstein_outcome>  (70) 
acceptable

>  <distance_score>  (70) 
0.854535

>  <score_inspiration>  (70) 
0.800297

>  <original ID>  (70) 
ARJRRNVYNBTWSC-JTQLQIEISA-N

>  <ref_pdb>  (70) 
B1368a

>  <alias>  (70) 
None

$$$$
4323
     RDKit          3D

 21 23  0  0  0  0  0  0  0  0999 V2000
    4.3728   -4.7356   36.2330 C   0  0  0  0  0  0  0  0  0  0  0  0
    3.9166   -3.7592   35.2743 N   0  0  0  0  0  0  0  0  0  0  0  0
    4.4642   -2.5357   35.0267 C   0  0  0  0  0  0  0  0  0  0  0  0
    3.7969   -2.0330   33.9343 C   0  0  0  0  0  0  0  0  0  0  0  0
    2.8479   -3.0243   33.5983 C   0  0  0  0  0  0  0  0  0  0  0  0
    1.7909   -2.9094   32.2003 S   0  0  0  0  0  0  0  0  0  0  0  0
    0.7818   -1.9476   32.5809 O   0  0  0  0  0  0  0  0  0  0  0  0
    2.6846   -2.6949   31.0862 O   0  0  0  0  0  0  0  0  0  0  0  0
    1.0072   -4.3703   31.9981 N   0  0  0  0  0  0  0  0  0  0  0  0
    0.6114   -4.7434   30.6637 C   0  0  0  0  0  0  0  0  0  0  0  0
    0.6051   -6.1990   30.5195 N   0  0  0  0  0  0  0  0  0  0  0  0
   -0.1947   -6.9407   31.3339 C   0  0  0  0  0  0  0  0  0  0  0  0
   -1.2403   -7.6525   30.9670 N   0  0  0  0  0  0  0  0  0  0  0  0
   -1.8722   -8.0955   32.1054 N   0  0  0  0  0  0  0  0  0  0  0  0
   -1.1864   -7.6640   33.1427 C   0  0  0  0  0  0  0  0  0  0  0  0
   -1.3958   -7.7205   34.5479 C   0  0  0  0  0  0  0  0  0  0  0  0
   -0.4462   -7.2742   35.3918 C   0  0  0  0  0  0  0  0  0  0  0  0
    0.8147   -6.7584   34.8964 C   0  0  0  0  0  0  0  0  0  0  0  0
    1.0010   -6.6794   33.5701 C   0  0  0  0  0  0  0  0  0  0  0  0
   -0.0243   -7.0600   32.7039 N   0  0  0  0  0  0  0  0  0  0  0  0
    2.8864   -4.0640   34.4604 N   0  0  0  0  0  0  0  0  0  0  0  0
  1  2  1  0
  2  3  1  0
  3  4  2  0
  4  5  1  0
  5  6  1  0
  6  7  2  0
  6  8  2  0
  6  9  1  0
  9 10  1  0
 10 11  1  0
 11 12  1  0
 12 13  2  0
 13 14  1  0
 14 15  2  0
 15 16  1  0
 16 17  2  0
 17 18  1  0
 18 19  2  0
 19 20  1  0
  5 21  2  0
 21  2  1  0
 20 12  1  0
 20 15  1  0
M  END
>  <SLURM_JOB_ID>  (71) 
350558

>  <original SMILES>  (71) 
Cn1ccc(S(=O)(=O)NCNc2nnc3ccccn23)n1

>  <tags>  (71) 
Fragmenstein placed

>  <inchikey>  (71) 
HFOLJJOFUVOQHO-UHFFFAOYSA-N

>  <scratch_subdir>  (71) 
/opt/xchem-fragalysis-2/maxwin/BulkDock/SCRATCH/350558/C707-P72

>  <name>  (71) 
HFOLJJOFUVOQHO-UHFFFAOYSA-N

>  <energy_score>  (71) 
-48.713849

>  <fragmenstein_error>  (71) 
None

>  <csv_name>  (71) 
D68EV3C_iter1_fstein_split1000_batch000.csv

>  <fragmenstein_mode>  (71) 
expansion

>  <HIPPO Compound ID>  (71) 
707

>  <HIPPO Pose ID>  (71) 
4323

>  <ref_mols>  (71) 
7gqf-a,B0439a

>  <fragmenstein_runtime>  (71) 
1.709165

>  <fragmenstein_outcome>  (71) 
acceptable

>  <distance_score>  (71) 
0.863221

>  <score_inspiration>  (71) 
0.621248

>  <original ID>  (71) 
HFOLJJOFUVOQHO-UHFFFAOYSA-N

>  <ref_pdb>  (71) 
7gqf-a

>  <alias>  (71) 
None

$$$$
4327
     RDKit          3D

 21 23  0  0  0  0  0  0  0  0999 V2000
    4.3558   -4.7348   36.2306 C   0  0  0  0  0  0  0  0  0  0  0  0
    3.9036   -3.7613   35.2671 N   0  0  0  0  0  0  0  0  0  0  0  0
    4.4424   -2.5322   35.0282 C   0  0  0  0  0  0  0  0  0  0  0  0
    3.7814   -2.0328   33.9304 C   0  0  0  0  0  0  0  0  0  0  0  0
    2.8456   -3.0323   33.5818 C   0  0  0  0  0  0  0  0  0  0  0  0
    1.8000   -2.9236   32.1747 S   0  0  0  0  0  0  0  0  0  0  0  0
    0.7802   -1.9698   32.5470 O   0  0  0  0  0  0  0  0  0  0  0  0
    2.7013   -2.7005   31.0684 O   0  0  0  0  0  0  0  0  0  0  0  0
    1.0304   -4.3901   31.9634 N   0  0  0  0  0  0  0  0  0  0  0  0
    0.6401   -4.7621   30.6269 C   0  0  0  0  0  0  0  0  0  0  0  0
    0.6205   -6.2183   30.4870 N   0  0  0  0  0  0  0  0  0  0  0  0
   -0.1940   -6.9443   31.3027 C   0  0  0  0  0  0  0  0  0  0  0  0
   -1.2477   -7.6404   30.9324 N   0  0  0  0  0  0  0  0  0  0  0  0
   -1.9015   -8.0555   32.0686 N   0  0  0  0  0  0  0  0  0  0  0  0
   -1.2126   -7.6384   33.1097 C   0  0  0  0  0  0  0  0  0  0  0  0
   -1.4251   -7.6993   34.5144 C   0  0  0  0  0  0  0  0  0  0  0  0
   -0.4681   -7.2751   35.3615 C   0  0  0  0  0  0  0  0  0  0  0  0
    0.8002   -6.7722   34.8716 C   0  0  0  0  0  0  0  0  0  0  0  0
    0.9933   -6.6961   33.5460 C   0  0  0  0  0  0  0  0  0  0  0  0
   -0.0351   -7.0599   32.6754 N   0  0  0  0  0  0  0  0  0  0  0  0
    2.8870   -4.0748   34.4400 N   0  0  0  0  0  0  0  0  0  0  0  0
  1  2  1  0
  2  3  1  0
  3  4  2  0
  4  5  1  0
  5  6  1  0
  6  7  2  0
  6  8  2  0
  6  9  1  0
  9 10  1  0
 10 11  1  0
 11 12  1  0
 12 13  2  0
 13 14  1  0
 14 15  2  0
 15 16  1  0
 16 17  2  0
 17 18  1  0
 18 19  2  0
 19 20  1  0
  5 21  2  0
 21  2  1  0
 20 12  1  0
 20 15  1  0
M  END
>  <SLURM_JOB_ID>  (72) 
350558

>  <original SMILES>  (72) 
Cn1ccc(S(=O)(=O)NCNc2nnc3ccccn23)n1

>  <tags>  (72) 
Fragmenstein placed

>  <inchikey>  (72) 
HFOLJJOFUVOQHO-UHFFFAOYSA-N

>  <scratch_subdir>  (72) 
/opt/xchem-fragalysis-2/maxwin/BulkDock/SCRATCH/350558/C707-P129

>  <name>  (72) 
HFOLJJOFUVOQHO-UHFFFAOYSA-N

>  <energy_score>  (72) 
-48.946685

>  <fragmenstein_error>  (72) 
None

>  <csv_name>  (72) 
D68EV3C_iter1_fstein_split1000_batch000.csv

>  <fragmenstein_mode>  (72) 
expansion

>  <HIPPO Compound ID>  (72) 
707

>  <HIPPO Pose ID>  (72) 
4327

>  <ref_mols>  (72) 
7gqf-a,B0439a

>  <fragmenstein_runtime>  (72) 
1.682114

>  <fragmenstein_outcome>  (72) 
acceptable

>  <distance_score>  (72) 
0.863918

>  <score_inspiration>  (72) 
0.620907

>  <original ID>  (72) 
HFOLJJOFUVOQHO-UHFFFAOYSA-N

>  <ref_pdb>  (72) 
B0439a

>  <alias>  (72) 
None

$$$$
4485
     RDKit          3D

 29 32  0  0  0  0  0  0  0  0999 V2000
    1.1710   -3.9253   35.5657 N   0  0  0  0  0  0  0  0  0  0  0  0
    0.0250   -4.7480   35.2291 C   0  0  2  0  0  0  0  0  0  0  0  0
   -0.9785   -3.7892   35.0014 O   0  0  0  0  0  0  0  0  0  0  0  0
   -0.5051   -5.6652   36.2025 N   0  0  0  0  0  0  0  0  0  0  0  0
    0.3227   -6.3783   37.0010 C   0  0  0  0  0  0  0  0  0  0  0  0
    1.4174   -6.0067   37.8069 C   0  0  0  0  0  0  0  0  0  0  0  0
    1.9409   -7.0518   38.4626 N   0  0  0  0  0  0  0  0  0  0  0  0
    1.1472   -8.0755   38.0956 N   0  0  0  0  0  0  0  0  0  0  0  0
    0.2010   -7.7233   37.1813 C   0  0  0  0  0  0  0  0  0  0  0  0
    0.2992   -5.4385   33.8486 C   0  0  0  0  0  0  0  0  0  0  0  0
    1.1954   -4.9916   33.0159 N   0  0  0  0  0  0  0  0  0  0  0  0
    1.1637   -5.4280   31.7113 C   0  0  0  0  0  0  0  0  0  0  0  0
    1.8465   -4.5004   30.7564 C   0  0  0  0  0  0  0  0  0  0  0  0
    0.7982   -3.4624   30.3675 C   0  0  0  0  0  0  0  0  0  0  0  0
    0.3661   -2.6946   31.5632 N   0  0  0  0  0  0  0  0  0  0  0  0
   -1.2175   -2.1037   31.5849 S   0  0  0  0  0  0  0  0  0  0  0  0
   -2.1295   -3.2112   31.3781 O   0  0  0  0  0  0  0  0  0  0  0  0
   -1.3380   -1.2002   32.7046 O   0  0  0  0  0  0  0  0  0  0  0  0
   -1.3144   -1.1014   30.1616 C   0  0  0  0  0  0  0  0  0  0  0  0
   -1.5576   -1.6324   28.9139 C   0  0  0  0  0  0  0  0  0  0  0  0
   -1.3006   -0.4517   27.7221 S   0  0  0  0  0  0  0  0  0  0  0  0
   -0.8906    0.6817   28.9387 C   0  0  0  0  0  0  0  0  0  0  0  0
   -0.9048    0.2303   30.1745 N   0  0  0  0  0  0  0  0  0  0  0  0
    0.5012   -6.4317   31.2333 N   0  0  0  0  0  0  0  0  0  0  0  0
   -0.2982   -6.9667   32.1443 N   0  0  0  0  0  0  0  0  0  0  0  0
   -1.1185   -7.9728   31.8644 N   0  0  0  0  0  0  0  0  0  0  0  0
   -1.7379   -8.0891   33.0379 C   0  0  0  0  0  0  0  0  0  0  0  0
   -1.4468   -7.1758   34.0063 N   0  0  0  0  0  0  0  0  0  0  0  0
   -0.5018   -6.5094   33.4028 C   0  0  0  0  0  0  0  0  0  0  0  0
  2  1  1  1
  2  3  1  0
  2  4  1  0
  4  5  1  0
  5  6  1  0
  6  7  2  0
  7  8  1  0
  8  9  1  0
  2 10  1  0
 10 11  2  0
 11 12  1  0
 12 13  1  0
 13 14  1  0
 14 15  1  0
 15 16  1  0
 16 17  2  0
 16 18  2  0
 16 19  1  0
 19 20  2  0
 20 21  1  0
 21 22  1  0
 22 23  2  0
 12 24  2  0
 24 25  1  0
 25 26  1  0
 26 27  2  0
 27 28  1  0
 28 29  2  0
  9  5  2  0
 29 10  1  0
 23 19  1  0
 29 25  1  0
M  END
>  <SLURM_JOB_ID>  (73) 
350559

>  <original SMILES>  (73) 
N[C@](O)(Nc1cn[nH]c1)c1nc(CCNS(=O)(=O)c2cscn2)nn2ncnc12

>  <tags>  (73) 
Fragmenstein placed

>  <inchikey>  (73) 
DGQSQIJNJUPHBO-ZDUSSCGKSA-N

>  <scratch_subdir>  (73) 
/opt/xchem-fragalysis-2/maxwin/BulkDock/SCRATCH/350559/C367-P196

>  <name>  (73) 
DGQSQIJNJUPHBO-ZDUSSCGKSA-N

>  <energy_score>  (73) 
-462.630646

>  <fragmenstein_error>  (73) 
None

>  <csv_name>  (73) 
D68EV3C_iter1_fstein_split1000_batch001.csv

>  <fragmenstein_mode>  (73) 
expansion

>  <HIPPO Compound ID>  (73) 
367

>  <HIPPO Pose ID>  (73) 
4485

>  <ref_mols>  (73) 
7gq4-a,B1457a

>  <fragmenstein_runtime>  (73) 
3.87934

>  <fragmenstein_outcome>  (73) 
acceptable

>  <distance_score>  (73) 
0.987186

>  <score_inspiration>  (73) 
0.47233

>  <original ID>  (73) 
DGQSQIJNJUPHBO-ZDUSSCGKSA-N

>  <ref_pdb>  (73) 
B1457a

>  <alias>  (73) 
None

$$$$
4855
     RDKit          3D

 21 22  0  0  0  0  0  0  0  0999 V2000
    0.0163   -5.9052   34.8694 C   0  0  0  0  0  0  0  0  0  0  0  0
   -0.0189   -6.3362   33.4366 C   0  0  0  0  0  0  0  0  0  0  0  0
   -0.7995   -7.3987   33.0402 C   0  0  0  0  0  0  0  0  0  0  0  0
   -0.6939   -7.7299   31.7167 C   0  0  0  0  0  0  0  0  0  0  0  0
   -1.2964   -8.8451   31.2343 O   0  0  0  0  0  0  0  0  0  0  0  0
    0.0650   -7.1063   30.8125 N   0  0  0  0  0  0  0  0  0  0  0  0
    0.7509   -6.0570   31.2848 C   0  0  0  0  0  0  0  0  0  0  0  0
    1.4884   -5.1996   30.2996 C   0  0  0  0  0  0  0  0  0  0  0  0
    0.6272   -3.9965   29.9357 C   0  0  0  0  0  0  0  0  0  0  0  0
    0.5426   -3.0526   31.0711 N   0  0  0  0  0  0  0  0  0  0  0  0
   -0.9122   -2.2497   31.3308 S   0  0  0  0  0  0  0  0  0  0  0  0
   -1.9874   -3.2135   31.2238 O   0  0  0  0  0  0  0  0  0  0  0  0
   -0.7370   -1.4645   32.5331 O   0  0  0  0  0  0  0  0  0  0  0  0
   -0.9637   -1.1432   29.9760 C   0  0  0  0  0  0  0  0  0  0  0  0
   -0.4056    0.1261   30.0351 C   0  0  0  0  0  0  0  0  0  0  0  0
   -0.5638    0.9733   28.9379 C   0  0  0  0  0  0  0  0  0  0  0  0
   -1.2991    0.5346   27.8476 C   0  0  0  0  0  0  0  0  0  0  0  0
   -1.6029    1.3790   26.7928 N   0  0  0  0  0  0  0  0  0  0  0  0
   -1.8221   -0.6944   27.7821 N   0  0  0  0  0  0  0  0  0  0  0  0
   -1.6334   -1.5166   28.8346 C   0  0  0  0  0  0  0  0  0  0  0  0
    0.7711   -5.6619   32.5725 N   0  0  0  0  0  0  0  0  0  0  0  0
  1  2  1  0
  2  3  2  0
  3  4  1  0
  4  5  1  0
  4  6  2  0
  6  7  1  0
  7  8  1  0
  8  9  1  0
  9 10  1  0
 10 11  1  0
 11 12  2  0
 11 13  2  0
 11 14  1  0
 14 15  2  0
 15 16  1  0
 16 17  2  0
 17 18  1  0
 17 19  1  0
 19 20  2  0
  7 21  2  0
 21  2  1  0
 20 14  1  0
M  END
>  <SLURM_JOB_ID>  (74) 
350559

>  <original SMILES>  (74) 
Cc1cc(O)nc(CCNS(=O)(=O)c2ccc(N)nc2)n1

>  <tags>  (74) 
Fragmenstein placed

>  <inchikey>  (74) 
UORMEOYXXLBBFS-UHFFFAOYSA-N

>  <scratch_subdir>  (74) 
/opt/xchem-fragalysis-2/maxwin/BulkDock/SCRATCH/350559/C407-P72

>  <name>  (74) 
UORMEOYXXLBBFS-UHFFFAOYSA-N

>  <energy_score>  (74) 
-57.053738

>  <fragmenstein_error>  (74) 
None

>  <csv_name>  (74) 
D68EV3C_iter1_fstein_split1000_batch001.csv

>  <fragmenstein_mode>  (74) 
expansion

>  <HIPPO Compound ID>  (74) 
407

>  <HIPPO Pose ID>  (74) 
4855

>  <ref_mols>  (74) 
7gqf-a,B1460a

>  <fragmenstein_runtime>  (74) 
3.751124

>  <fragmenstein_outcome>  (74) 
acceptable

>  <distance_score>  (74) 
0.56188

>  <score_inspiration>  (74) 
0.872883

>  <original ID>  (74) 
UORMEOYXXLBBFS-UHFFFAOYSA-N

>  <ref_pdb>  (74) 
7gqf-a

>  <alias>  (74) 
None

$$$$
4862
     RDKit          3D

 21 22  0  0  0  0  0  0  0  0999 V2000
    0.6915   -6.0961   34.8918 C   0  0  0  0  0  0  0  0  0  0  0  0
    0.3830   -6.4057   33.4595 C   0  0  0  0  0  0  0  0  0  0  0  0
   -0.5144   -7.3950   33.1192 C   0  0  0  0  0  0  0  0  0  0  0  0
   -0.6015   -7.6567   31.7780 C   0  0  0  0  0  0  0  0  0  0  0  0
   -1.3088   -8.7170   31.3152 O   0  0  0  0  0  0  0  0  0  0  0  0
    0.0666   -7.0196   30.8136 N   0  0  0  0  0  0  0  0  0  0  0  0
    0.8630   -6.0293   31.2402 C   0  0  0  0  0  0  0  0  0  0  0  0
    1.5163   -5.1575   30.2099 C   0  0  0  0  0  0  0  0  0  0  0  0
    0.5962   -3.9922   29.8649 C   0  0  0  0  0  0  0  0  0  0  0  0
    0.5252   -3.0271   30.9784 N   0  0  0  0  0  0  0  0  0  0  0  0
   -0.9147   -2.2195   31.2693 S   0  0  0  0  0  0  0  0  0  0  0  0
   -2.0041   -3.1689   31.1820 O   0  0  0  0  0  0  0  0  0  0  0  0
   -0.7091   -1.4424   32.4729 O   0  0  0  0  0  0  0  0  0  0  0  0
   -0.9971   -1.0970   29.9256 C   0  0  0  0  0  0  0  0  0  0  0  0
   -0.4974    0.1964   30.0072 C   0  0  0  0  0  0  0  0  0  0  0  0
   -0.6849    1.0543   28.9213 C   0  0  0  0  0  0  0  0  0  0  0  0
   -1.3997    0.6042   27.8219 C   0  0  0  0  0  0  0  0  0  0  0  0
   -1.6873    1.4399   26.7487 N   0  0  0  0  0  0  0  0  0  0  0  0
   -1.8619   -0.6474   27.7320 N   0  0  0  0  0  0  0  0  0  0  0  0
   -1.6428   -1.4801   28.7725 C   0  0  0  0  0  0  0  0  0  0  0  0
    1.0747   -5.7113   32.5312 N   0  0  0  0  0  0  0  0  0  0  0  0
  1  2  1  0
  2  3  2  0
  3  4  1  0
  4  5  1  0
  4  6  2  0
  6  7  1  0
  7  8  1  0
  8  9  1  0
  9 10  1  0
 10 11  1  0
 11 12  2  0
 11 13  2  0
 11 14  1  0
 14 15  2  0
 15 16  1  0
 16 17  2  0
 17 18  1  0
 17 19  1  0
 19 20  2  0
  7 21  2  0
 21  2  1  0
 20 14  1  0
M  END
>  <SLURM_JOB_ID>  (75) 
350559

>  <original SMILES>  (75) 
Cc1cc(O)nc(CCNS(=O)(=O)c2ccc(N)nc2)n1

>  <tags>  (75) 
Fragmenstein placed

>  <inchikey>  (75) 
UORMEOYXXLBBFS-UHFFFAOYSA-N

>  <scratch_subdir>  (75) 
/opt/xchem-fragalysis-2/maxwin/BulkDock/SCRATCH/350559/C407-P78

>  <name>  (75) 
UORMEOYXXLBBFS-UHFFFAOYSA-N

>  <energy_score>  (75) 
-57.751174

>  <fragmenstein_error>  (75) 
None

>  <csv_name>  (75) 
D68EV3C_iter1_fstein_split1000_batch001.csv

>  <fragmenstein_mode>  (75) 
expansion

>  <HIPPO Compound ID>  (75) 
407

>  <HIPPO Pose ID>  (75) 
4862

>  <ref_mols>  (75) 
7gqh-a,B1460a

>  <fragmenstein_runtime>  (75) 
3.104985

>  <fragmenstein_outcome>  (75) 
acceptable

>  <distance_score>  (75) 
0.895179

>  <score_inspiration>  (75) 
0.870628

>  <original ID>  (75) 
UORMEOYXXLBBFS-UHFFFAOYSA-N

>  <ref_pdb>  (75) 
7gqh-a

>  <alias>  (75) 
None

$$$$
4917
     RDKit          3D

 21 23  0  0  0  0  0  0  0  0999 V2000
   -2.3786   -3.0670   31.8013 O   0  0  0  0  0  0  0  0  0  0  0  0
   -1.1739   -2.2937   31.9828 S   0  0  0  0  0  0  0  0  0  0  0  0
   -0.9219   -1.5102   33.1678 O   0  0  0  0  0  0  0  0  0  0  0  0
    0.1257   -3.3507   31.8660 N   0  0  0  0  0  0  0  0  0  0  0  0
    0.2083   -4.2038   30.6674 C   0  0  0  0  0  0  0  0  0  0  0  0
    0.9053   -5.5403   30.9073 C   0  0  0  0  0  0  0  0  0  0  0  0
    0.0280   -6.4877   31.6360 C   0  0  0  0  0  0  0  0  0  0  0  0
   -0.8083   -7.3838   31.1351 N   0  0  0  0  0  0  0  0  0  0  0  0
   -1.4797   -7.9795   32.1895 N   0  0  0  0  0  0  0  0  0  0  0  0
   -1.0263   -7.4183   33.2855 C   0  0  0  0  0  0  0  0  0  0  0  0
   -1.3926   -7.6082   34.6542 C   0  0  0  0  0  0  0  0  0  0  0  0
   -0.7954   -6.9613   35.6223 N   0  0  0  0  0  0  0  0  0  0  0  0
    0.2076   -6.0713   35.2774 C   0  0  0  0  0  0  0  0  0  0  0  0
    0.5887   -5.8262   34.0131 C   0  0  0  0  0  0  0  0  0  0  0  0
   -0.0565   -6.5072   33.0002 N   0  0  0  0  0  0  0  0  0  0  0  0
   -0.9432   -1.3005   30.6565 N   0  0  0  0  0  0  0  0  0  0  0  0
   -1.3943   -1.7736   29.3114 C   0  0  0  0  0  0  0  0  0  0  0  0
   -1.4312   -0.6100   28.3220 C   0  0  0  0  0  0  0  0  0  0  0  0
   -0.1382    0.0118   28.2405 O   0  0  0  0  0  0  0  0  0  0  0  0
    0.2088    0.5799   29.5059 C   0  0  0  0  0  0  0  0  0  0  0  0
    0.3023   -0.4936   30.5930 C   0  0  0  0  0  0  0  0  0  0  0  0
  1  2  2  0
  2  3  2  0
  2  4  1  0
  4  5  1  0
  5  6  1  0
  6  7  1  0
  7  8  2  0
  8  9  1  0
  9 10  2  0
 10 11  1  0
 11 12  2  0
 12 13  1  0
 13 14  2  0
 14 15  1  0
  2 16  1  0
 16 17  1  0
 17 18  1  0
 18 19  1  0
 19 20  1  0
 20 21  1  0
 15  7  1  0
 21 16  1  0
 15 10  1  0
M  END
>  <SLURM_JOB_ID>  (76) 
350558

>  <original SMILES>  (76) 
O=S(=O)(NCCc1nnc2cnccn12)N1CCOCC1

>  <tags>  (76) 
Fragmenstein placed

>  <inchikey>  (76) 
SKZWXAFOZXXRRV-UHFFFAOYSA-N

>  <scratch_subdir>  (76) 
/opt/xchem-fragalysis-2/maxwin/BulkDock/SCRATCH/350558/C759-P105

>  <name>  (76) 
SKZWXAFOZXXRRV-UHFFFAOYSA-N

>  <energy_score>  (76) 
-62.726491

>  <fragmenstein_error>  (76) 
None

>  <csv_name>  (76) 
D68EV3C_iter1_fstein_split1000_batch000.csv

>  <fragmenstein_mode>  (76) 
expansion

>  <HIPPO Compound ID>  (76) 
759

>  <HIPPO Pose ID>  (76) 
4917

>  <ref_mols>  (76) 
7go2-a,B0454a

>  <fragmenstein_runtime>  (76) 
1.894235

>  <fragmenstein_outcome>  (76) 
acceptable

>  <distance_score>  (76) 
0.997136

>  <score_inspiration>  (76) 
0.574568

>  <original ID>  (76) 
SKZWXAFOZXXRRV-UHFFFAOYSA-N

>  <ref_pdb>  (76) 
7go2-a

>  <alias>  (76) 
None

$$$$
4920
     RDKit          3D

 21 23  0  0  0  0  0  0  0  0999 V2000
   -2.4986   -2.2769   32.1492 O   0  0  0  0  0  0  0  0  0  0  0  0
   -1.1489   -1.7809   32.2749 S   0  0  0  0  0  0  0  0  0  0  0  0
   -0.7064   -1.0622   33.4434 O   0  0  0  0  0  0  0  0  0  0  0  0
   -0.1313   -3.1290   32.1476 N   0  0  0  0  0  0  0  0  0  0  0  0
   -0.3217   -3.9402   30.9204 C   0  0  0  0  0  0  0  0  0  0  0  0
    0.5310   -5.2107   30.8752 C   0  0  0  0  0  0  0  0  0  0  0  0
   -0.1145   -6.3085   31.6365 C   0  0  0  0  0  0  0  0  0  0  0  0
   -0.9832   -7.2033   31.1946 N   0  0  0  0  0  0  0  0  0  0  0  0
   -1.5216   -7.8498   32.2940 N   0  0  0  0  0  0  0  0  0  0  0  0
   -0.9446   -7.3367   33.3555 C   0  0  0  0  0  0  0  0  0  0  0  0
   -1.1690   -7.5533   34.7535 C   0  0  0  0  0  0  0  0  0  0  0  0
   -0.4425   -6.9451   35.6572 N   0  0  0  0  0  0  0  0  0  0  0  0
    0.5658   -6.1021   35.2290 C   0  0  0  0  0  0  0  0  0  0  0  0
    0.8107   -5.8287   33.9378 C   0  0  0  0  0  0  0  0  0  0  0  0
    0.0140   -6.4403   32.9909 N   0  0  0  0  0  0  0  0  0  0  0  0
   -0.7532   -0.9259   30.9236 N   0  0  0  0  0  0  0  0  0  0  0  0
   -1.5192   -1.0711   29.6714 C   0  0  0  0  0  0  0  0  0  0  0  0
   -0.6325   -0.9653   28.4299 C   0  0  0  0  0  0  0  0  0  0  0  0
    0.2362    0.1719   28.3919 O   0  0  0  0  0  0  0  0  0  0  0  0
    0.4172    0.8131   29.6555 C   0  0  0  0  0  0  0  0  0  0  0  0
    0.5068   -0.1796   30.8191 C   0  0  0  0  0  0  0  0  0  0  0  0
  1  2  2  0
  2  3  2  0
  2  4  1  0
  4  5  1  0
  5  6  1  0
  6  7  1  0
  7  8  2  0
  8  9  1  0
  9 10  2  0
 10 11  1  0
 11 12  2  0
 12 13  1  0
 13 14  2  0
 14 15  1  0
  2 16  1  0
 16 17  1  0
 17 18  1  0
 18 19  1  0
 19 20  1  0
 20 21  1  0
 15  7  1  0
 21 16  1  0
 15 10  1  0
M  END
>  <SLURM_JOB_ID>  (77) 
350558

>  <original SMILES>  (77) 
O=S(=O)(NCCc1nnc2cnccn12)N1CCOCC1

>  <tags>  (77) 
Fragmenstein placed

>  <inchikey>  (77) 
SKZWXAFOZXXRRV-UHFFFAOYSA-N

>  <scratch_subdir>  (77) 
/opt/xchem-fragalysis-2/maxwin/BulkDock/SCRATCH/350558/C759-P134

>  <name>  (77) 
SKZWXAFOZXXRRV-UHFFFAOYSA-N

>  <energy_score>  (77) 
-56.757937

>  <fragmenstein_error>  (77) 
None

>  <csv_name>  (77) 
D68EV3C_iter1_fstein_split1000_batch000.csv

>  <fragmenstein_mode>  (77) 
expansion

>  <HIPPO Compound ID>  (77) 
759

>  <HIPPO Pose ID>  (77) 
4920

>  <ref_mols>  (77) 
7go2-a,B0454a

>  <fragmenstein_runtime>  (77) 
2.590051

>  <fragmenstein_outcome>  (77) 
acceptable

>  <distance_score>  (77) 
0.941979

>  <score_inspiration>  (77) 
0.565462

>  <original ID>  (77) 
SKZWXAFOZXXRRV-UHFFFAOYSA-N

>  <ref_pdb>  (77) 
B0454a

>  <alias>  (77) 
None

$$$$
5209
     RDKit          3D

 37 40  0  0  0  0  0  0  0  0999 V2000
    9.0857   -3.3600   36.9129 C   0  0  0  0  0  0  0  0  0  0  0  0
    7.7445   -3.7108   37.2826 N   0  0  0  0  0  0  0  0  0  0  0  0
    6.4876   -3.4657   36.6226 C   0  0  0  0  0  0  0  0  0  0  0  0
    6.2469   -2.9748   35.5569 O   0  0  0  0  0  0  0  0  0  0  0  0
    5.3331   -3.9350   37.5276 C   0  0  0  0  0  0  0  0  0  0  0  0
    4.1775   -4.5422   36.7646 C   0  0  0  0  0  0  0  0  0  0  0  0
    3.0998   -3.7536   36.3578 C   0  0  0  0  0  0  0  0  0  0  0  0
    2.0648   -4.3177   35.6171 C   0  0  0  0  0  0  0  0  0  0  0  0
    2.0861   -5.6824   35.2870 C   0  0  0  0  0  0  0  0  0  0  0  0
    0.9858   -6.2078   34.4603 C   0  0  0  0  0  0  0  0  0  0  0  0
   -0.1432   -6.9613   35.0066 C   0  0  0  0  0  0  0  0  0  0  0  0
   -1.0659   -7.5293   34.2078 C   0  0  0  0  0  0  0  0  0  0  0  0
   -0.9508   -7.4048   32.7982 C   0  0  0  0  0  0  0  0  0  0  0  0
   -1.6312   -7.9080   31.7903 N   0  0  0  0  0  0  0  0  0  0  0  0
   -1.1059   -7.3832   30.6292 N   0  0  0  0  0  0  0  0  0  0  0  0
   -0.1208   -6.5716   30.9506 C   0  0  0  0  0  0  0  0  0  0  0  0
    0.5892   -5.7630   30.1286 N   0  0  0  0  0  0  0  0  0  0  0  0
    0.0760   -6.6113   32.3156 N   0  0  0  0  0  0  0  0  0  0  0  0
    1.0487   -6.0318   33.1248 C   0  0  0  0  0  0  0  0  0  0  0  0
    3.1390   -6.5173   35.7368 C   0  0  0  0  0  0  0  0  0  0  0  0
    3.1847   -7.8880   35.3667 N   0  0  0  0  0  0  0  0  0  0  0  0
    3.6871   -8.8314   36.3841 C   0  0  0  0  0  0  0  0  0  0  0  0
    2.6618   -9.1984   37.4037 C   0  0  0  0  0  0  0  0  0  0  0  0
    1.7116  -10.0791   36.9774 O   0  0  0  0  0  0  0  0  0  0  0  0
    0.8717  -10.3082   38.0198 C   0  0  0  0  0  0  0  0  0  0  0  0
   -0.2146  -11.2856   37.7912 C   0  0  0  0  0  0  0  0  0  0  0  0
    1.2517   -9.5471   39.1031 C   0  0  0  0  0  0  0  0  0  0  0  0
    2.4092   -8.8024   38.7085 C   0  0  0  0  0  0  0  0  0  0  0  0
    3.2217   -7.8364   39.4638 C   0  0  0  0  0  0  0  0  0  0  0  0
    4.3773   -7.7281   39.1871 O   0  0  0  0  0  0  0  0  0  0  0  0
    2.4293   -7.1521   40.4268 N   0  0  0  0  0  0  0  0  0  0  0  0
    2.7900   -6.1823   41.4348 C   0  0  0  0  0  0  0  0  0  0  0  0
    2.8646   -6.7435   42.8520 C   0  0  0  0  0  0  0  0  0  0  0  0
    3.2265   -6.0803   43.8167 O   0  0  0  0  0  0  0  0  0  0  0  0
    2.4440   -8.0386   42.9148 O   0  0  0  0  0  0  0  0  0  0  0  0
    2.5064   -8.6119   44.2208 C   0  0  0  0  0  0  0  0  0  0  0  0
    4.1983   -5.9064   36.4260 C   0  0  0  0  0  0  0  0  0  0  0  0
  1  2  1  0
  2  3  1  0
  3  4  2  0
  3  5  1  0
  5  6  1  0
  6  7  2  0
  7  8  1  0
  8  9  2  0
  9 10  1  0
 10 11  1  0
 11 12  2  0
 12 13  1  0
 13 14  2  0
 14 15  1  0
 15 16  2  0
 16 17  1  0
 16 18  1  0
 18 19  1  0
  9 20  1  0
 20 21  1  0
 21 22  1  0
 22 23  1  0
 23 24  1  0
 24 25  1  0
 25 26  1  0
 25 27  2  0
 27 28  1  0
 28 29  1  0
 29 30  2  0
 29 31  1  0
 31 32  1  0
 32 33  1  0
 33 34  2  0
 33 35  1  0
 35 36  1  0
 20 37  2  0
 37  6  1  0
 19 10  2  0
 28 23  2  0
 18 13  1  0
M  END
>  <SLURM_JOB_ID>  (78) 
350558

>  <original SMILES>  (78) 
CNC(=O)Cc1ccc(-c2ccc3nnc(N)n3c2)c(NCc2oc(C)cc2C(=O)NCC(=O)OC)c1

>  <tags>  (78) 
Fragmenstein placed

>  <inchikey>  (78) 
SDXLYGPPHLSHBG-UHFFFAOYSA-N

>  <scratch_subdir>  (78) 
/opt/xchem-fragalysis-2/maxwin/BulkDock/SCRATCH/350558/C779-P105

>  <name>  (78) 
SDXLYGPPHLSHBG-UHFFFAOYSA-N

>  <energy_score>  (78) 
-59.726251

>  <fragmenstein_error>  (78) 
None

>  <csv_name>  (78) 
D68EV3C_iter1_fstein_split1000_batch000.csv

>  <fragmenstein_mode>  (78) 
expansion

>  <HIPPO Compound ID>  (78) 
779

>  <HIPPO Pose ID>  (78) 
5209

>  <ref_mols>  (78) 
7go2-a,B1463a

>  <fragmenstein_runtime>  (78) 
15.69202

>  <fragmenstein_outcome>  (78) 
acceptable

>  <distance_score>  (78) 
0.722322

>  <score_inspiration>  (78) 
0.200425

>  <original ID>  (78) 
SDXLYGPPHLSHBG-UHFFFAOYSA-N

>  <ref_pdb>  (78) 
7go2-a

>  <alias>  (78) 
None

$$$$
5720
     RDKit          3D

 23 26  0  0  0  0  0  0  0  0999 V2000
    4.5845    1.5111   31.7688 C   0  0  0  0  0  0  0  0  0  0  0  0
    3.3546    0.4515   31.0418 S   0  0  0  0  0  0  0  0  0  0  0  0
    3.9939   -0.7560   30.5684 O   0  0  0  0  0  0  0  0  0  0  0  0
    2.5397    1.2683   30.1683 O   0  0  0  0  0  0  0  0  0  0  0  0
    2.3781    0.1172   32.3883 N   0  0  0  0  0  0  0  0  0  0  0  0
    2.5312   -1.1697   32.9848 C   0  0  0  0  0  0  0  0  0  0  0  0
    3.5528   -1.3869   33.9069 C   0  0  0  0  0  0  0  0  0  0  0  0
    3.7494   -2.6608   34.4381 C   0  0  0  0  0  0  0  0  0  0  0  0
    2.9363   -3.7194   34.0317 C   0  0  0  0  0  0  0  0  0  0  0  0
    1.9102   -3.5103   33.1005 C   0  0  0  0  0  0  0  0  0  0  0  0
    1.0712   -4.6388   32.6540 C   0  0  0  0  0  0  0  0  0  0  0  0
    1.0596   -4.9177   31.3175 C   0  0  0  0  0  0  0  0  0  0  0  0
    0.2840   -6.0256   30.7401 C   0  0  0  0  0  0  0  0  0  0  0  0
   -0.4325   -6.7879   31.5762 C   0  0  0  0  0  0  0  0  0  0  0  0
   -1.2282   -7.9038   31.3306 N   0  0  0  0  0  0  0  0  0  0  0  0
   -1.6789   -8.3189   32.4803 N   0  0  0  0  0  0  0  0  0  0  0  0
   -1.1791   -7.4706   33.4651 C   0  0  0  0  0  0  0  0  0  0  0  0
   -0.4137   -6.4941   32.8991 N   0  0  0  0  0  0  0  0  0  0  0  0
    0.2781   -5.5000   33.5517 C   0  0  0  0  0  0  0  0  0  0  0  0
    0.1370   -5.4822   34.9009 C   0  0  0  0  0  0  0  0  0  0  0  0
   -0.6451   -6.4542   35.5420 N   0  0  0  0  0  0  0  0  0  0  0  0
   -1.2863   -7.4634   34.8085 C   0  0  0  0  0  0  0  0  0  0  0  0
    1.7132   -2.2234   32.5779 C   0  0  0  0  0  0  0  0  0  0  0  0
  1  2  1  0
  2  3  2  0
  2  4  2  0
  2  5  1  0
  5  6  1  0
  6  7  2  0
  7  8  1  0
  8  9  2  0
  9 10  1  0
 10 11  1  0
 11 12  2  0
 12 13  1  0
 13 14  2  0
 14 15  1  0
 15 16  2  0
 16 17  1  0
 17 18  1  0
 18 19  1  0
 19 20  2  0
 20 21  1  0
 21 22  1  0
 10 23  2  0
 23  6  1  0
 19 11  1  0
 18 14  1  0
 22 17  2  0
M  END
>  <SLURM_JOB_ID>  (79) 
350558

>  <original SMILES>  (79) 
CS(=O)(=O)Nc1cccc(-c2ccc3nnc4n3c2=CNC=4)c1

>  <tags>  (79) 
Fragmenstein placed

>  <inchikey>  (79) 
DPMLRYOMULDSOF-UHFFFAOYSA-N

>  <scratch_subdir>  (79) 
/opt/xchem-fragalysis-2/maxwin/BulkDock/SCRATCH/350558/C816-P128

>  <name>  (79) 
DPMLRYOMULDSOF-UHFFFAOYSA-N

>  <energy_score>  (79) 
-57.827176

>  <fragmenstein_error>  (79) 
None

>  <csv_name>  (79) 
D68EV3C_iter1_fstein_split1000_batch000.csv

>  <fragmenstein_mode>  (79) 
expansion

>  <HIPPO Compound ID>  (79) 
816

>  <HIPPO Pose ID>  (79) 
5720

>  <ref_mols>  (79) 
B0436a,B0875a

>  <fragmenstein_runtime>  (79) 
1.589529

>  <fragmenstein_outcome>  (79) 
acceptable

>  <distance_score>  (79) 
0.574007

>  <score_inspiration>  (79) 
0.708014

>  <original ID>  (79) 
DPMLRYOMULDSOF-UHFFFAOYSA-N

>  <ref_pdb>  (79) 
B0436a

>  <alias>  (79) 
None

$$$$
5724
     RDKit          3D

 23 26  0  0  0  0  0  0  0  0999 V2000
    4.6286    1.3908   31.8168 C   0  0  0  0  0  0  0  0  0  0  0  0
    3.3481    0.3915   31.0916 S   0  0  0  0  0  0  0  0  0  0  0  0
    3.9322   -0.8319   30.5884 O   0  0  0  0  0  0  0  0  0  0  0  0
    2.5545    1.2554   30.2441 O   0  0  0  0  0  0  0  0  0  0  0  0
    2.3770    0.0703   32.4454 N   0  0  0  0  0  0  0  0  0  0  0  0
    2.5160   -1.2191   33.0403 C   0  0  0  0  0  0  0  0  0  0  0  0
    3.5477   -1.4549   33.9460 C   0  0  0  0  0  0  0  0  0  0  0  0
    3.7319   -2.7331   34.4708 C   0  0  0  0  0  0  0  0  0  0  0  0
    2.8956   -3.7782   34.0752 C   0  0  0  0  0  0  0  0  0  0  0  0
    1.8566   -3.5518   33.1624 C   0  0  0  0  0  0  0  0  0  0  0  0
    0.9964   -4.6689   32.7218 C   0  0  0  0  0  0  0  0  0  0  0  0
    0.9189   -4.9006   31.3785 C   0  0  0  0  0  0  0  0  0  0  0  0
    0.1128   -5.9844   30.8008 C   0  0  0  0  0  0  0  0  0  0  0  0
   -0.5368   -6.7984   31.6424 C   0  0  0  0  0  0  0  0  0  0  0  0
   -1.3712   -7.8847   31.3922 N   0  0  0  0  0  0  0  0  0  0  0  0
   -1.7942   -8.3258   32.5435 N   0  0  0  0  0  0  0  0  0  0  0  0
   -1.2286   -7.5279   33.5347 C   0  0  0  0  0  0  0  0  0  0  0  0
   -0.4321   -6.5716   32.9732 N   0  0  0  0  0  0  0  0  0  0  0  0
    0.2522   -5.5703   33.6250 C   0  0  0  0  0  0  0  0  0  0  0  0
    0.1356   -5.5755   34.9765 C   0  0  0  0  0  0  0  0  0  0  0  0
   -0.6171   -6.5718   35.6161 N   0  0  0  0  0  0  0  0  0  0  0  0
   -1.3107   -7.5433   34.8791 C   0  0  0  0  0  0  0  0  0  0  0  0
    1.6733   -2.2588   32.6467 C   0  0  0  0  0  0  0  0  0  0  0  0
  1  2  1  0
  2  3  2  0
  2  4  2  0
  2  5  1  0
  5  6  1  0
  6  7  2  0
  7  8  1  0
  8  9  2  0
  9 10  1  0
 10 11  1  0
 11 12  2  0
 12 13  1  0
 13 14  2  0
 14 15  1  0
 15 16  2  0
 16 17  1  0
 17 18  1  0
 18 19  1  0
 19 20  2  0
 20 21  1  0
 21 22  1  0
 10 23  2  0
 23  6  1  0
 19 11  1  0
 18 14  1  0
 22 17  2  0
M  END
>  <SLURM_JOB_ID>  (80) 
350558

>  <original SMILES>  (80) 
CS(=O)(=O)Nc1cccc(-c2ccc3nnc4n3c2=CNC=4)c1

>  <tags>  (80) 
Fragmenstein placed

>  <inchikey>  (80) 
DPMLRYOMULDSOF-UHFFFAOYSA-N

>  <scratch_subdir>  (80) 
/opt/xchem-fragalysis-2/maxwin/BulkDock/SCRATCH/350558/C816-P158

>  <name>  (80) 
DPMLRYOMULDSOF-UHFFFAOYSA-N

>  <energy_score>  (80) 
-57.594733

>  <fragmenstein_error>  (80) 
None

>  <csv_name>  (80) 
D68EV3C_iter1_fstein_split1000_batch000.csv

>  <fragmenstein_mode>  (80) 
expansion

>  <HIPPO Compound ID>  (80) 
816

>  <HIPPO Pose ID>  (80) 
5724

>  <ref_mols>  (80) 
B0436a,B0875a

>  <fragmenstein_runtime>  (80) 
1.488487

>  <fragmenstein_outcome>  (80) 
acceptable

>  <distance_score>  (80) 
0.569531

>  <score_inspiration>  (80) 
0.704495

>  <original ID>  (80) 
DPMLRYOMULDSOF-UHFFFAOYSA-N

>  <ref_pdb>  (80) 
B0875a

>  <alias>  (80) 
None

$$$$
5796
     RDKit          3D

 32 36  0  0  0  0  0  0  0  0999 V2000
    5.6749   -0.5638   30.7906 C   0  0  0  0  0  0  0  0  0  0  0  0
    4.0114   -0.3397   30.1948 S   0  0  0  0  0  0  0  0  0  0  0  0
    3.9563    0.9673   29.5769 O   0  0  0  0  0  0  0  0  0  0  0  0
    3.6257   -1.5377   29.4817 O   0  0  0  0  0  0  0  0  0  0  0  0
    3.1434   -0.2125   31.6372 N   0  0  0  0  0  0  0  0  0  0  0  0
    3.0150   -1.3589   32.4680 C   0  0  0  0  0  0  0  0  0  0  0  0
    3.6683   -1.3922   33.6983 C   0  0  0  0  0  0  0  0  0  0  0  0
    3.6036   -2.5412   34.4862 C   0  0  0  0  0  0  0  0  0  0  0  0
    2.8774   -3.6502   34.0480 C   0  0  0  0  0  0  0  0  0  0  0  0
    2.1879   -3.6121   32.8274 C   0  0  0  0  0  0  0  0  0  0  0  0
    1.3877   -4.7768   32.3665 C   0  0  0  0  0  0  0  0  0  0  0  0
    1.6165   -5.3236   31.0279 C   0  0  0  0  0  0  0  0  0  0  0  0
    0.8444   -6.2862   30.5049 C   0  0  0  0  0  0  0  0  0  0  0  0
   -0.1477   -6.9064   31.2924 C   0  0  0  0  0  0  0  0  0  0  0  0
   -0.9723   -7.8953   31.0394 N   0  0  0  0  0  0  0  0  0  0  0  0
   -1.6161   -8.1933   32.2088 N   0  0  0  0  0  0  0  0  0  0  0  0
   -1.1933   -7.3738   33.1488 C   0  0  0  0  0  0  0  0  0  0  0  0
   -1.4447   -7.5023   34.4750 N   0  0  0  0  0  0  0  0  0  0  0  0
   -0.3269   -6.4391   32.5881 N   0  0  0  0  0  0  0  0  0  0  0  0
    0.3495   -5.2984   33.0852 C   0  0  0  0  0  0  0  0  0  0  0  0
   -0.4229   -4.3420   34.3484 S   0  0  0  0  0  0  0  0  0  0  0  0
   -1.2314   -3.3504   33.1289 C   0  0  0  0  0  0  0  0  0  0  0  0
   -2.0418   -3.8834   32.2367 N   0  0  0  0  0  0  0  0  0  0  0  0
   -2.1539   -2.9996   31.2081 N   0  0  0  0  0  0  0  0  0  0  0  0
   -1.3683   -1.9834   31.4981 C   0  0  0  0  0  0  0  0  0  0  0  0
   -1.0473   -0.9724   30.5512 C   0  0  0  0  0  0  0  0  0  0  0  0
   -0.3551    0.2107   30.7013 C   0  0  0  0  0  0  0  0  0  0  0  0
   -0.2790    0.8246   29.4265 C   0  0  0  0  0  0  0  0  0  0  0  0
   -0.9184   -0.0028   28.5327 C   0  0  0  0  0  0  0  0  0  0  0  0
   -1.3668   -1.1012   29.2171 N   0  0  0  0  0  0  0  0  0  0  0  0
   -0.8137   -2.0969   32.7549 O   0  0  0  0  0  0  0  0  0  0  0  0
    2.2780   -2.4603   32.0357 C   0  0  0  0  0  0  0  0  0  0  0  0
  1  2  1  0
  2  3  2  0
  2  4  2  0
  2  5  1  0
  5  6  1  0
  6  7  2  0
  7  8  1  0
  8  9  2  0
  9 10  1  0
 10 11  1  0
 11 12  1  0
 12 13  2  0
 13 14  1  0
 14 15  2  0
 15 16  1  0
 16 17  2  0
 17 18  1  0
 17 19  1  0
 19 20  1  0
 20 21  1  0
 21 22  1  0
 22 23  2  0
 23 24  1  0
 24 25  2  0
 25 26  1  0
 26 27  2  0
 27 28  1  0
 28 29  2  0
 29 30  1  0
 25 31  1  0
 10 32  2  0
 32  6  1  0
 20 11  2  0
 31 22  1  0
 19 14  1  0
 30 26  1  0
M  END
>  <SLURM_JOB_ID>  (81) 
350558

>  <original SMILES>  (81) 
CS(=O)(=O)Nc1cccc(-c2ccc3nnc(N)n3c2Sc2nnc(-c3ccc[nH]3)o2)c1

>  <tags>  (81) 
Fragmenstein placed

>  <inchikey>  (81) 
FYSFPMUXJFXROW-UHFFFAOYSA-N

>  <scratch_subdir>  (81) 
/opt/xchem-fragalysis-2/maxwin/BulkDock/SCRATCH/350558/C824-P128

>  <name>  (81) 
FYSFPMUXJFXROW-UHFFFAOYSA-N

>  <energy_score>  (81) 
-68.174446

>  <fragmenstein_error>  (81) 
None

>  <csv_name>  (81) 
D68EV3C_iter1_fstein_split1000_batch000.csv

>  <fragmenstein_mode>  (81) 
expansion

>  <HIPPO Compound ID>  (81) 
824

>  <HIPPO Pose ID>  (81) 
5796

>  <ref_mols>  (81) 
B0436a,B1456a

>  <fragmenstein_runtime>  (81) 
3.246123

>  <fragmenstein_outcome>  (81) 
acceptable

>  <distance_score>  (81) 
0.8314

>  <score_inspiration>  (81) 
0.662783

>  <original ID>  (81) 
FYSFPMUXJFXROW-UHFFFAOYSA-N

>  <ref_pdb>  (81) 
B0436a

>  <alias>  (81) 
None

$$$$
5803
     RDKit          3D

 32 36  0  0  0  0  0  0  0  0999 V2000
    5.4968   -0.3980   30.5734 C   0  0  0  0  0  0  0  0  0  0  0  0
    3.7962   -0.1646   30.0978 S   0  0  0  0  0  0  0  0  0  0  0  0
    3.6867    1.1715   29.5532 O   0  0  0  0  0  0  0  0  0  0  0  0
    3.3743   -1.3284   29.3500 O   0  0  0  0  0  0  0  0  0  0  0  0
    3.0218   -0.1203   31.5974 N   0  0  0  0  0  0  0  0  0  0  0  0
    2.9699   -1.3015   32.3877 C   0  0  0  0  0  0  0  0  0  0  0  0
    3.6576   -1.3450   33.5997 C   0  0  0  0  0  0  0  0  0  0  0  0
    3.6566   -2.5161   34.3575 C   0  0  0  0  0  0  0  0  0  0  0  0
    2.9581   -3.6378   33.9087 C   0  0  0  0  0  0  0  0  0  0  0  0
    2.2354   -3.5904   32.7077 C   0  0  0  0  0  0  0  0  0  0  0  0
    1.4496   -4.7628   32.2479 C   0  0  0  0  0  0  0  0  0  0  0  0
    1.6930   -5.3272   30.9198 C   0  0  0  0  0  0  0  0  0  0  0  0
    0.9317   -6.3033   30.4035 C   0  0  0  0  0  0  0  0  0  0  0  0
   -0.0668   -6.9140   31.1928 C   0  0  0  0  0  0  0  0  0  0  0  0
   -0.8786   -7.9182   30.9542 N   0  0  0  0  0  0  0  0  0  0  0  0
   -1.5383   -8.1925   32.1207 N   0  0  0  0  0  0  0  0  0  0  0  0
   -1.1378   -7.3439   33.0442 C   0  0  0  0  0  0  0  0  0  0  0  0
   -1.4194   -7.4362   34.3664 N   0  0  0  0  0  0  0  0  0  0  0  0
   -0.2629   -6.4220   32.4777 N   0  0  0  0  0  0  0  0  0  0  0  0
    0.4095   -5.2767   32.9666 C   0  0  0  0  0  0  0  0  0  0  0  0
   -0.3520   -4.3170   34.2317 S   0  0  0  0  0  0  0  0  0  0  0  0
   -1.1971   -3.3510   33.0180 C   0  0  0  0  0  0  0  0  0  0  0  0
   -1.9982   -3.9077   32.1312 N   0  0  0  0  0  0  0  0  0  0  0  0
   -2.1839   -3.0089   31.1280 N   0  0  0  0  0  0  0  0  0  0  0  0
   -1.4336   -1.9659   31.4174 C   0  0  0  0  0  0  0  0  0  0  0  0
   -1.1791   -0.9306   30.4785 C   0  0  0  0  0  0  0  0  0  0  0  0
   -0.5016    0.2620   30.6185 C   0  0  0  0  0  0  0  0  0  0  0  0
   -0.4836    0.8919   29.3496 C   0  0  0  0  0  0  0  0  0  0  0  0
   -1.1440    0.0649   28.4701 C   0  0  0  0  0  0  0  0  0  0  0  0
   -1.5598   -1.0437   29.1595 N   0  0  0  0  0  0  0  0  0  0  0  0
   -0.8412   -2.0764   32.6569 O   0  0  0  0  0  0  0  0  0  0  0  0
    2.2611   -2.4169   31.9448 C   0  0  0  0  0  0  0  0  0  0  0  0
  1  2  1  0
  2  3  2  0
  2  4  2  0
  2  5  1  0
  5  6  1  0
  6  7  2  0
  7  8  1  0
  8  9  2  0
  9 10  1  0
 10 11  1  0
 11 12  1  0
 12 13  2  0
 13 14  1  0
 14 15  2  0
 15 16  1  0
 16 17  2  0
 17 18  1  0
 17 19  1  0
 19 20  1  0
 20 21  1  0
 21 22  1  0
 22 23  2  0
 23 24  1  0
 24 25  2  0
 25 26  1  0
 26 27  2  0
 27 28  1  0
 28 29  2  0
 29 30  1  0
 25 31  1  0
 10 32  2  0
 32  6  1  0
 20 11  2  0
 31 22  1  0
 19 14  1  0
 30 26  1  0
M  END
>  <SLURM_JOB_ID>  (82) 
350558

>  <original SMILES>  (82) 
CS(=O)(=O)Nc1cccc(-c2ccc3nnc(N)n3c2Sc2nnc(-c3ccc[nH]3)o2)c1

>  <tags>  (82) 
Fragmenstein placed

>  <inchikey>  (82) 
FYSFPMUXJFXROW-UHFFFAOYSA-N

>  <scratch_subdir>  (82) 
/opt/xchem-fragalysis-2/maxwin/BulkDock/SCRATCH/350558/C824-P194

>  <name>  (82) 
FYSFPMUXJFXROW-UHFFFAOYSA-N

>  <energy_score>  (82) 
-69.949094

>  <fragmenstein_error>  (82) 
None

>  <csv_name>  (82) 
D68EV3C_iter1_fstein_split1000_batch000.csv

>  <fragmenstein_mode>  (82) 
expansion

>  <HIPPO Compound ID>  (82) 
824

>  <HIPPO Pose ID>  (82) 
5803

>  <ref_mols>  (82) 
B0436a,B1456a

>  <fragmenstein_runtime>  (82) 
5.623458

>  <fragmenstein_outcome>  (82) 
acceptable

>  <distance_score>  (82) 
0.848428

>  <score_inspiration>  (82) 
0.646968

>  <original ID>  (82) 
FYSFPMUXJFXROW-UHFFFAOYSA-N

>  <ref_pdb>  (82) 
B1456a

>  <alias>  (82) 
None

$$$$
5885
     RDKit          3D

 21 22  0  0  0  0  0  0  0  0999 V2000
   -0.5176   -6.4670   35.2436 C   0  0  0  0  0  0  0  0  0  0  0  0
   -0.3331   -6.7699   33.7871 C   0  0  0  0  0  0  0  0  0  0  0  0
   -1.1206   -7.7076   33.1629 C   0  0  0  0  0  0  0  0  0  0  0  0
   -0.7938   -7.9768   31.8627 C   0  0  0  0  0  0  0  0  0  0  0  0
   -1.3768   -8.9997   31.1933 O   0  0  0  0  0  0  0  0  0  0  0  0
    0.1551   -7.3666   31.1556 N   0  0  0  0  0  0  0  0  0  0  0  0
    0.8158   -6.4139   31.8218 C   0  0  0  0  0  0  0  0  0  0  0  0
    1.6560   -5.4713   31.0125 C   0  0  0  0  0  0  0  0  0  0  0  0
    0.8020   -4.2497   30.6868 C   0  0  0  0  0  0  0  0  0  0  0  0
    0.5410   -3.4716   31.9204 N   0  0  0  0  0  0  0  0  0  0  0  0
   -0.9356   -2.6939   32.0593 S   0  0  0  0  0  0  0  0  0  0  0  0
   -1.9720   -3.6383   31.7098 O   0  0  0  0  0  0  0  0  0  0  0  0
   -0.9086   -2.0382   33.3431 O   0  0  0  0  0  0  0  0  0  0  0  0
   -0.7723   -1.5533   30.8776 N   0  0  0  0  0  0  0  0  0  0  0  0
    0.3323   -0.5766   30.9684 C   0  0  0  0  0  0  0  0  0  0  0  0
    0.0433    0.6163   30.0496 C   0  0  0  0  0  0  0  0  0  0  0  0
   -0.0896    0.2711   28.6155 N   0  0  0  0  0  0  0  0  0  0  0  0
   -1.1266    1.1125   28.0396 N   0  0  0  0  0  0  0  0  0  0  0  0
   -0.4570   -1.1517   28.4283 C   0  0  0  0  0  0  0  0  0  0  0  0
   -1.3429   -1.7542   29.5280 C   0  0  0  0  0  0  0  0  0  0  0  0
    0.6407   -6.1089   33.1260 N   0  0  0  0  0  0  0  0  0  0  0  0
  1  2  1  0
  2  3  2  0
  3  4  1  0
  4  5  1  0
  4  6  2  0
  6  7  1  0
  7  8  1  0
  8  9  1  0
  9 10  1  0
 10 11  1  0
 11 12  2  0
 11 13  2  0
 11 14  1  0
 14 15  1  0
 15 16  1  0
 16 17  1  0
 17 18  1  0
 17 19  1  0
 19 20  1  0
  7 21  2  0
 21  2  1  0
 20 14  1  0
M  END
>  <SLURM_JOB_ID>  (83) 
350559

>  <original SMILES>  (83) 
Cc1cc(O)nc(CCNS(=O)(=O)N2CCN(N)CC2)n1

>  <tags>  (83) 
Fragmenstein placed

>  <inchikey>  (83) 
MFLOENYQIXAYNO-UHFFFAOYSA-N

>  <scratch_subdir>  (83) 
/opt/xchem-fragalysis-2/maxwin/BulkDock/SCRATCH/350559/C469-P44

>  <name>  (83) 
MFLOENYQIXAYNO-UHFFFAOYSA-N

>  <energy_score>  (83) 
-70.59882

>  <fragmenstein_error>  (83) 
None

>  <csv_name>  (83) 
D68EV3C_iter1_fstein_split1000_batch001.csv

>  <fragmenstein_mode>  (83) 
expansion

>  <HIPPO Compound ID>  (83) 
469

>  <HIPPO Pose ID>  (83) 
5885

>  <ref_mols>  (83) 
7gp2-a,B1463a

>  <fragmenstein_runtime>  (83) 
2.70506

>  <fragmenstein_outcome>  (83) 
acceptable

>  <distance_score>  (83) 
0.687709

>  <score_inspiration>  (83) 
0.822271

>  <original ID>  (83) 
MFLOENYQIXAYNO-UHFFFAOYSA-N

>  <ref_pdb>  (83) 
7gp2-a

>  <alias>  (83) 
None

$$$$
5889
     RDKit          3D

 21 22  0  0  0  0  0  0  0  0999 V2000
   -0.5032   -6.5217   35.2674 C   0  0  0  0  0  0  0  0  0  0  0  0
   -0.3450   -6.7825   33.7996 C   0  0  0  0  0  0  0  0  0  0  0  0
   -1.1360   -7.7095   33.1637 C   0  0  0  0  0  0  0  0  0  0  0  0
   -0.8321   -7.9380   31.8495 C   0  0  0  0  0  0  0  0  0  0  0  0
   -1.4120   -8.9520   31.1665 O   0  0  0  0  0  0  0  0  0  0  0  0
    0.1008   -7.3024   31.1438 N   0  0  0  0  0  0  0  0  0  0  0  0
    0.7682   -6.3649   31.8255 C   0  0  0  0  0  0  0  0  0  0  0  0
    1.6118   -5.4096   31.0351 C   0  0  0  0  0  0  0  0  0  0  0  0
    0.7593   -4.1903   30.7116 C   0  0  0  0  0  0  0  0  0  0  0  0
    0.4632   -3.4348   31.9491 N   0  0  0  0  0  0  0  0  0  0  0  0
   -1.0171   -2.6602   32.0549 S   0  0  0  0  0  0  0  0  0  0  0  0
   -2.0405   -3.5852   31.6235 O   0  0  0  0  0  0  0  0  0  0  0  0
   -1.0456   -2.0535   33.3625 O   0  0  0  0  0  0  0  0  0  0  0  0
   -0.7993   -1.4746   30.9265 N   0  0  0  0  0  0  0  0  0  0  0  0
    0.2465   -0.4541   31.1507 C   0  0  0  0  0  0  0  0  0  0  0  0
   -0.0132    0.7497   30.2335 C   0  0  0  0  0  0  0  0  0  0  0  0
    0.0207    0.4398   28.7834 N   0  0  0  0  0  0  0  0  0  0  0  0
   -1.0248    1.2168   28.1347 N   0  0  0  0  0  0  0  0  0  0  0  0
   -0.2221   -1.0008   28.5401 C   0  0  0  0  0  0  0  0  0  0  0  0
   -1.1993   -1.6651   29.5164 C   0  0  0  0  0  0  0  0  0  0  0  0
    0.6165   -6.1013   33.1409 N   0  0  0  0  0  0  0  0  0  0  0  0
  1  2  1  0
  2  3  2  0
  3  4  1  0
  4  5  1  0
  4  6  2  0
  6  7  1  0
  7  8  1  0
  8  9  1  0
  9 10  1  0
 10 11  1  0
 11 12  2  0
 11 13  2  0
 11 14  1  0
 14 15  1  0
 15 16  1  0
 16 17  1  0
 17 18  1  0
 17 19  1  0
 19 20  1  0
  7 21  2  0
 21  2  1  0
 20 14  1  0
M  END
>  <SLURM_JOB_ID>  (84) 
350559

>  <original SMILES>  (84) 
Cc1cc(O)nc(CCNS(=O)(=O)N2CCN(N)CC2)n1

>  <tags>  (84) 
Fragmenstein placed

>  <inchikey>  (84) 
MFLOENYQIXAYNO-UHFFFAOYSA-N

>  <scratch_subdir>  (84) 
/opt/xchem-fragalysis-2/maxwin/BulkDock/SCRATCH/350559/C469-P202

>  <name>  (84) 
MFLOENYQIXAYNO-UHFFFAOYSA-N

>  <energy_score>  (84) 
-70.641743

>  <fragmenstein_error>  (84) 
None

>  <csv_name>  (84) 
D68EV3C_iter1_fstein_split1000_batch001.csv

>  <fragmenstein_mode>  (84) 
expansion

>  <HIPPO Compound ID>  (84) 
469

>  <HIPPO Pose ID>  (84) 
5889

>  <ref_mols>  (84) 
7gp2-a,B1463a

>  <fragmenstein_runtime>  (84) 
3.352862

>  <fragmenstein_outcome>  (84) 
acceptable

>  <distance_score>  (84) 
0.667233

>  <score_inspiration>  (84) 
0.827206

>  <original ID>  (84) 
MFLOENYQIXAYNO-UHFFFAOYSA-N

>  <ref_pdb>  (84) 
B1463a

>  <alias>  (84) 
None

$$$$
5956
     RDKit          3D

 32 36  0  0  0  0  0  0  0  0999 V2000
    5.1643   -5.0411   35.8907 C   0  0  0  0  0  0  0  0  0  0  0  0
    4.3018   -3.5529   36.3460 S   0  0  0  0  0  0  0  0  0  0  0  0
    5.0975   -2.8929   37.3579 O   0  0  0  0  0  0  0  0  0  0  0  0
    2.9062   -3.8559   36.5729 O   0  0  0  0  0  0  0  0  0  0  0  0
    4.4857   -2.6275   34.9494 N   0  0  0  0  0  0  0  0  0  0  0  0
    3.4393   -2.5533   33.9809 C   0  0  0  0  0  0  0  0  0  0  0  0
    3.2344   -1.3433   33.3165 C   0  0  0  0  0  0  0  0  0  0  0  0
    2.2505   -1.2384   32.3314 C   0  0  0  0  0  0  0  0  0  0  0  0
    1.4720   -2.3471   32.0015 C   0  0  0  0  0  0  0  0  0  0  0  0
    1.6959   -3.5753   32.6336 C   0  0  0  0  0  0  0  0  0  0  0  0
    0.9638   -4.7866   32.1980 C   0  0  0  0  0  0  0  0  0  0  0  0
    1.2143   -5.2475   30.8365 C   0  0  0  0  0  0  0  0  0  0  0  0
    0.6201   -6.3323   30.3370 C   0  0  0  0  0  0  0  0  0  0  0  0
   -0.2929   -7.0686   31.1133 C   0  0  0  0  0  0  0  0  0  0  0  0
   -1.0372   -8.1039   30.8141 N   0  0  0  0  0  0  0  0  0  0  0  0
   -1.6722   -8.4862   31.9588 N   0  0  0  0  0  0  0  0  0  0  0  0
   -1.3103   -7.6867   32.9401 C   0  0  0  0  0  0  0  0  0  0  0  0
   -1.6614   -7.8383   34.2411 N   0  0  0  0  0  0  0  0  0  0  0  0
   -0.4763   -6.6881   32.4370 N   0  0  0  0  0  0  0  0  0  0  0  0
    0.1345   -5.5332   32.9851 C   0  0  0  0  0  0  0  0  0  0  0  0
   -0.2441   -5.0881   34.6171 S   0  0  0  0  0  0  0  0  0  0  0  0
    0.8438   -6.0939   35.5682 C   0  0  0  0  0  0  0  0  0  0  0  0
    1.6526   -6.8864   34.9393 N   0  0  0  0  0  0  0  0  0  0  0  0
    2.5081   -7.6848   35.6702 C   0  0  0  0  0  0  0  0  0  0  0  0
    3.2538   -8.4728   35.0970 O   0  0  0  0  0  0  0  0  0  0  0  0
    2.4486   -7.4754   37.0977 C   0  0  0  0  0  0  0  0  0  0  0  0
    3.4837   -8.2042   38.2270 S   0  0  0  0  0  0  0  0  0  0  0  0
    2.7074   -7.3928   39.5296 C   0  0  0  0  0  0  0  0  0  0  0  0
    1.6860   -6.5689   39.0973 C   0  0  0  0  0  0  0  0  0  0  0  0
    1.5520   -6.6289   37.6924 C   0  0  0  0  0  0  0  0  0  0  0  0
    0.6845   -5.9507   36.9219 N   0  0  0  0  0  0  0  0  0  0  0  0
    2.7150   -3.6761   33.5859 C   0  0  0  0  0  0  0  0  0  0  0  0
  1  2  1  0
  2  3  2  0
  2  4  2  0
  2  5  1  0
  5  6  1  0
  6  7  2  0
  7  8  1  0
  8  9  2  0
  9 10  1  0
 10 11  1  0
 11 12  1  0
 12 13  2  0
 13 14  1  0
 14 15  2  0
 15 16  1  0
 16 17  2  0
 17 18  1  0
 17 19  1  0
 19 20  1  0
 20 21  1  0
 21 22  1  0
 22 23  2  0
 23 24  1  0
 24 25  2  0
 24 26  1  0
 26 27  1  0
 27 28  1  0
 28 29  2  0
 29 30  1  0
 30 31  1  0
 10 32  2  0
 32  6  1  0
 20 11  2  0
 31 22  1  0
 19 14  1  0
 30 26  2  0
M  END
>  <SLURM_JOB_ID>  (85) 
350558

>  <original SMILES>  (85) 
CS(=O)(=O)Nc1cccc(-c2ccc3nnc(N)n3c2Sc2nc(=O)c3sccc3[nH]2)c1

>  <tags>  (85) 
Fragmenstein placed

>  <inchikey>  (85) 
WEHWLKAJVTZUFD-UHFFFAOYSA-N

>  <scratch_subdir>  (85) 
/opt/xchem-fragalysis-2/maxwin/BulkDock/SCRATCH/350558/C831-P129

>  <name>  (85) 
WEHWLKAJVTZUFD-UHFFFAOYSA-N

>  <energy_score>  (85) 
-98.130949

>  <fragmenstein_error>  (85) 
None

>  <csv_name>  (85) 
D68EV3C_iter1_fstein_split1000_batch000.csv

>  <fragmenstein_mode>  (85) 
expansion

>  <HIPPO Compound ID>  (85) 
831

>  <HIPPO Pose ID>  (85) 
5956

>  <ref_mols>  (85) 
7gol-a,B0439a

>  <fragmenstein_runtime>  (85) 
32.920636

>  <fragmenstein_outcome>  (85) 
acceptable

>  <distance_score>  (85) 
0.893439

>  <score_inspiration>  (85) 
0.562174

>  <original ID>  (85) 
WEHWLKAJVTZUFD-UHFFFAOYSA-N

>  <ref_pdb>  (85) 
B0439a

>  <alias>  (85) 
None

$$$$
6010
     RDKit          3D

 33 36  0  0  0  0  0  0  0  0999 V2000
    2.7402   -3.7016   37.4345 C   0  0  0  0  0  0  0  0  0  0  0  0
    4.2631   -3.7356   36.5119 S   0  0  0  0  0  0  0  0  0  0  0  0
    4.3352   -4.9716   35.7629 O   0  0  0  0  0  0  0  0  0  0  0  0
    5.3197   -3.3442   37.4191 O   0  0  0  0  0  0  0  0  0  0  0  0
    4.0553   -2.4274   35.4795 N   0  0  0  0  0  0  0  0  0  0  0  0
    3.5527   -2.5866   34.1565 C   0  0  0  0  0  0  0  0  0  0  0  0
    3.9801   -1.6835   33.1847 C   0  0  0  0  0  0  0  0  0  0  0  0
    3.4955   -1.7805   31.8861 C   0  0  0  0  0  0  0  0  0  0  0  0
    2.5679   -2.7711   31.5682 C   0  0  0  0  0  0  0  0  0  0  0  0
    2.0574   -3.6421   32.5488 C   0  0  0  0  0  0  0  0  0  0  0  0
    1.0343   -4.6629   32.1893 C   0  0  0  0  0  0  0  0  0  0  0  0
    0.6595   -5.6846   32.9969 C   0  0  0  0  0  0  0  0  0  0  0  0
   -0.1783   -6.6793   32.4880 N   0  0  0  0  0  0  0  0  0  0  0  0
   -0.9205   -7.6777   33.0891 C   0  0  0  0  0  0  0  0  0  0  0  0
   -1.0665   -7.8101   34.4277 N   0  0  0  0  0  0  0  0  0  0  0  0
   -1.4729   -8.4202   32.1522 N   0  0  0  0  0  0  0  0  0  0  0  0
   -1.1696   -7.8859   30.9226 N   0  0  0  0  0  0  0  0  0  0  0  0
   -0.4437   -6.8120   31.1338 C   0  0  0  0  0  0  0  0  0  0  0  0
   -0.1022   -5.7144   30.2916 C   0  0  0  0  0  0  0  0  0  0  0  0
    0.3051   -4.5837   30.9058 C   0  0  0  0  0  0  0  0  0  0  0  0
   -0.5366   -3.3292   30.7494 C   0  0  0  0  0  0  0  0  0  0  0  0
   -0.2425   -2.5365   29.5443 N   0  0  0  0  0  0  0  0  0  0  0  0
   -1.4721   -1.3706   29.3277 S   0  0  0  0  0  0  0  0  0  0  0  0
   -2.1348   -1.1748   30.6020 O   0  0  0  0  0  0  0  0  0  0  0  0
   -2.1759   -1.7851   28.1460 O   0  0  0  0  0  0  0  0  0  0  0  0
   -0.7113    0.1413   28.9547 C   0  0  0  0  0  0  0  0  0  0  0  0
   -1.1578    0.9049   27.8808 C   0  0  0  0  0  0  0  0  0  0  0  0
   -0.7737    2.2391   27.8145 C   0  0  0  0  0  0  0  0  0  0  0  0
    0.0880    2.7436   28.7852 C   0  0  0  0  0  0  0  0  0  0  0  0
    0.3356    4.1139   28.8659 N   0  0  0  0  0  0  0  0  0  0  0  0
    0.5392    1.9895   29.8091 N   0  0  0  0  0  0  0  0  0  0  0  0
    0.1297    0.7048   29.8833 C   0  0  0  0  0  0  0  0  0  0  0  0
    2.5577   -3.5167   33.8457 C   0  0  0  0  0  0  0  0  0  0  0  0
  1  2  1  0
  2  3  2  0
  2  4  2  0
  2  5  1  0
  5  6  1  0
  6  7  2  0
  7  8  1  0
  8  9  2  0
  9 10  1  0
 10 11  1  0
 11 12  2  0
 12 13  1  0
 13 14  1  0
 14 15  1  0
 14 16  2  0
 16 17  1  0
 17 18  2  0
 18 19  1  0
 19 20  2  0
 20 21  1  0
 21 22  1  0
 22 23  1  0
 23 24  2  0
 23 25  2  0
 23 26  1  0
 26 27  2  0
 27 28  1  0
 28 29  2  0
 29 30  1  0
 29 31  1  0
 31 32  2  0
 10 33  2  0
 33  6  1  0
 20 11  1  0
 32 26  1  0
 18 13  1  0
M  END
>  <SLURM_JOB_ID>  (86) 
350558

>  <original SMILES>  (86) 
CS(=O)(=O)Nc1cccc(-c2cn3c(N)nnc3cc2CNS(=O)(=O)c2ccc(N)nc2)c1

>  <tags>  (86) 
Fragmenstein placed

>  <inchikey>  (86) 
UVSREIOAEVDTLH-UHFFFAOYSA-N

>  <scratch_subdir>  (86) 
/opt/xchem-fragalysis-2/maxwin/BulkDock/SCRATCH/350558/C839-P129

>  <name>  (86) 
UVSREIOAEVDTLH-UHFFFAOYSA-N

>  <energy_score>  (86) 
-52.987641

>  <fragmenstein_error>  (86) 
None

>  <csv_name>  (86) 
D68EV3C_iter1_fstein_split1000_batch000.csv

>  <fragmenstein_mode>  (86) 
expansion

>  <HIPPO Compound ID>  (86) 
839

>  <HIPPO Pose ID>  (86) 
6010

>  <ref_mols>  (86) 
B0439a,B0446a

>  <fragmenstein_runtime>  (86) 
3.607741

>  <fragmenstein_outcome>  (86) 
acceptable

>  <distance_score>  (86) 
0.76965

>  <score_inspiration>  (86) 
0.693504

>  <original ID>  (86) 
UVSREIOAEVDTLH-UHFFFAOYSA-N

>  <ref_pdb>  (86) 
B0439a

>  <alias>  (86) 
None

$$$$
6013
     RDKit          3D

 33 36  0  0  0  0  0  0  0  0999 V2000
    2.7466   -3.6791   37.4097 C   0  0  0  0  0  0  0  0  0  0  0  0
    4.2630   -3.7309   36.4774 S   0  0  0  0  0  0  0  0  0  0  0  0
    4.3126   -4.9664   35.7255 O   0  0  0  0  0  0  0  0  0  0  0  0
    5.3306   -3.3540   37.3776 O   0  0  0  0  0  0  0  0  0  0  0  0
    4.0643   -2.4184   35.4478 N   0  0  0  0  0  0  0  0  0  0  0  0
    3.5549   -2.5669   34.1257 C   0  0  0  0  0  0  0  0  0  0  0  0
    3.9780   -1.6579   33.1576 C   0  0  0  0  0  0  0  0  0  0  0  0
    3.4820   -1.7411   31.8615 C   0  0  0  0  0  0  0  0  0  0  0  0
    2.5480   -2.7249   31.5406 C   0  0  0  0  0  0  0  0  0  0  0  0
    2.0465   -3.6046   32.5171 C   0  0  0  0  0  0  0  0  0  0  0  0
    1.0222   -4.6223   32.1563 C   0  0  0  0  0  0  0  0  0  0  0  0
    0.6686   -5.6559   32.9559 C   0  0  0  0  0  0  0  0  0  0  0  0
   -0.1755   -6.6441   32.4494 N   0  0  0  0  0  0  0  0  0  0  0  0
   -0.9015   -7.6474   33.0539 C   0  0  0  0  0  0  0  0  0  0  0  0
   -1.0311   -7.7813   34.3928 N   0  0  0  0  0  0  0  0  0  0  0  0
   -1.4554   -8.3961   32.1235 N   0  0  0  0  0  0  0  0  0  0  0  0
   -1.1812   -7.8491   30.8925 N   0  0  0  0  0  0  0  0  0  0  0  0
   -0.4687   -6.7652   31.1008 C   0  0  0  0  0  0  0  0  0  0  0  0
   -0.1574   -5.6525   30.2702 C   0  0  0  0  0  0  0  0  0  0  0  0
    0.2659   -4.5306   30.8899 C   0  0  0  0  0  0  0  0  0  0  0  0
   -0.5830   -3.2794   30.7679 C   0  0  0  0  0  0  0  0  0  0  0  0
   -0.3571   -2.5071   29.5374 N   0  0  0  0  0  0  0  0  0  0  0  0
   -1.6091   -1.3604   29.3577 S   0  0  0  0  0  0  0  0  0  0  0  0
   -2.2298   -1.1623   30.6524 O   0  0  0  0  0  0  0  0  0  0  0  0
   -2.3549   -1.7953   28.2091 O   0  0  0  0  0  0  0  0  0  0  0  0
   -0.8669    0.1532   28.9493 C   0  0  0  0  0  0  0  0  0  0  0  0
   -1.3139    0.8877   27.8564 C   0  0  0  0  0  0  0  0  0  0  0  0
   -0.9326    2.2215   27.7577 C   0  0  0  0  0  0  0  0  0  0  0  0
   -0.0772    2.7545   28.7191 C   0  0  0  0  0  0  0  0  0  0  0  0
    0.1797    4.1254   28.7529 N   0  0  0  0  0  0  0  0  0  0  0  0
    0.3751    2.0287   29.7617 N   0  0  0  0  0  0  0  0  0  0  0  0
   -0.0317    0.7453   29.8670 C   0  0  0  0  0  0  0  0  0  0  0  0
    2.5551   -3.4905   33.8128 C   0  0  0  0  0  0  0  0  0  0  0  0
  1  2  1  0
  2  3  2  0
  2  4  2  0
  2  5  1  0
  5  6  1  0
  6  7  2  0
  7  8  1  0
  8  9  2  0
  9 10  1  0
 10 11  1  0
 11 12  2  0
 12 13  1  0
 13 14  1  0
 14 15  1  0
 14 16  2  0
 16 17  1  0
 17 18  2  0
 18 19  1  0
 19 20  2  0
 20 21  1  0
 21 22  1  0
 22 23  1  0
 23 24  2  0
 23 25  2  0
 23 26  1  0
 26 27  2  0
 27 28  1  0
 28 29  2  0
 29 30  1  0
 29 31  1  0
 31 32  2  0
 10 33  2  0
 33  6  1  0
 20 11  1  0
 32 26  1  0
 18 13  1  0
M  END
>  <SLURM_JOB_ID>  (87) 
350558

>  <original SMILES>  (87) 
CS(=O)(=O)Nc1cccc(-c2cn3c(N)nnc3cc2CNS(=O)(=O)c2ccc(N)nc2)c1

>  <tags>  (87) 
Fragmenstein placed

>  <inchikey>  (87) 
UVSREIOAEVDTLH-UHFFFAOYSA-N

>  <scratch_subdir>  (87) 
/opt/xchem-fragalysis-2/maxwin/BulkDock/SCRATCH/350558/C839-P130

>  <name>  (87) 
UVSREIOAEVDTLH-UHFFFAOYSA-N

>  <energy_score>  (87) 
-54.109993

>  <fragmenstein_error>  (87) 
None

>  <csv_name>  (87) 
D68EV3C_iter1_fstein_split1000_batch000.csv

>  <fragmenstein_mode>  (87) 
expansion

>  <HIPPO Compound ID>  (87) 
839

>  <HIPPO Pose ID>  (87) 
6013

>  <ref_mols>  (87) 
B0439a,B0446a

>  <fragmenstein_runtime>  (87) 
3.336365

>  <fragmenstein_outcome>  (87) 
acceptable

>  <distance_score>  (87) 
0.741379

>  <score_inspiration>  (87) 
0.699778

>  <original ID>  (87) 
UVSREIOAEVDTLH-UHFFFAOYSA-N

>  <ref_pdb>  (87) 
B0446a

>  <alias>  (87) 
None

$$$$
6021
     RDKit          3D

 32 35  0  0  0  0  0  0  0  0999 V2000
    2.8080   -3.6300   37.3625 C   0  0  0  0  0  0  0  0  0  0  0  0
    4.3807   -3.7106   36.5268 S   0  0  0  0  0  0  0  0  0  0  0  0
    4.5026   -4.9885   35.8594 O   0  0  0  0  0  0  0  0  0  0  0  0
    5.3852   -3.2526   37.4612 O   0  0  0  0  0  0  0  0  0  0  0  0
    4.2287   -2.4755   35.3989 N   0  0  0  0  0  0  0  0  0  0  0  0
    3.7548   -2.7091   34.0765 C   0  0  0  0  0  0  0  0  0  0  0  0
    4.1289   -1.8118   33.0765 C   0  0  0  0  0  0  0  0  0  0  0  0
    3.6258   -1.9534   31.7858 C   0  0  0  0  0  0  0  0  0  0  0  0
    2.7225   -2.9768   31.5025 C   0  0  0  0  0  0  0  0  0  0  0  0
    2.2850   -3.8512   32.5107 C   0  0  0  0  0  0  0  0  0  0  0  0
    1.2217   -4.8420   32.2342 C   0  0  0  0  0  0  0  0  0  0  0  0
    0.8511   -5.8536   33.0606 C   0  0  0  0  0  0  0  0  0  0  0  0
   -0.1703   -6.7162   32.6355 N   0  0  0  0  0  0  0  0  0  0  0  0
   -0.9456   -7.6301   33.2993 C   0  0  0  0  0  0  0  0  0  0  0  0
   -0.8679   -7.7832   34.6421 N   0  0  0  0  0  0  0  0  0  0  0  0
   -1.6765   -8.2880   32.4257 N   0  0  0  0  0  0  0  0  0  0  0  0
   -1.4581   -7.7627   31.1699 N   0  0  0  0  0  0  0  0  0  0  0  0
   -0.6056   -6.7797   31.3173 C   0  0  0  0  0  0  0  0  0  0  0  0
   -0.0229   -5.8102   30.4355 C   0  0  0  0  0  0  0  0  0  0  0  0
    0.2837   -4.6595   31.0913 C   0  0  0  0  0  0  0  0  0  0  0  0
   -0.8864   -3.7611   31.5113 C   0  0  0  0  0  0  0  0  0  0  0  0
   -0.4159   -2.5086   32.1192 N   0  0  0  0  0  0  0  0  0  0  0  0
   -1.5005   -1.2434   32.0804 S   0  0  0  0  0  0  0  0  0  0  0  0
   -1.1673   -0.3787   33.1864 O   0  0  0  0  0  0  0  0  0  0  0  0
   -2.8244   -1.7971   31.9324 O   0  0  0  0  0  0  0  0  0  0  0  0
   -1.0445   -0.4963   30.6615 N   0  0  0  0  0  0  0  0  0  0  0  0
   -1.1635   -1.2679   29.3925 C   0  0  0  0  0  0  0  0  0  0  0  0
   -1.0526   -0.3154   28.2097 C   0  0  0  0  0  0  0  0  0  0  0  0
    0.2310    0.3300   28.2299 O   0  0  0  0  0  0  0  0  0  0  0  0
    0.3477    1.1283   29.4154 C   0  0  0  0  0  0  0  0  0  0  0  0
    0.2306    0.2716   30.6837 C   0  0  0  0  0  0  0  0  0  0  0  0
    2.8089   -3.6933   33.7929 C   0  0  0  0  0  0  0  0  0  0  0  0
  1  2  1  0
  2  3  2  0
  2  4  2  0
  2  5  1  0
  5  6  1  0
  6  7  2  0
  7  8  1  0
  8  9  2  0
  9 10  1  0
 10 11  1  0
 11 12  2  0
 12 13  1  0
 13 14  1  0
 14 15  1  0
 14 16  2  0
 16 17  1  0
 17 18  2  0
 18 19  1  0
 19 20  2  0
 20 21  1  0
 21 22  1  0
 22 23  1  0
 23 24  2  0
 23 25  2  0
 23 26  1  0
 26 27  1  0
 27 28  1  0
 28 29  1  0
 29 30  1  0
 30 31  1  0
 10 32  2  0
 32  6  1  0
 20 11  1  0
 31 26  1  0
 18 13  1  0
M  END
>  <SLURM_JOB_ID>  (88) 
350558

>  <original SMILES>  (88) 
CS(=O)(=O)Nc1cccc(-c2cn3c(N)nnc3cc2CNS(=O)(=O)N2CCOCC2)c1

>  <tags>  (88) 
Fragmenstein placed

>  <inchikey>  (88) 
HINZQSGCFNLQAV-UHFFFAOYSA-N

>  <scratch_subdir>  (88) 
/opt/xchem-fragalysis-2/maxwin/BulkDock/SCRATCH/350558/C841-P134

>  <name>  (88) 
HINZQSGCFNLQAV-UHFFFAOYSA-N

>  <energy_score>  (88) 
-50.401941

>  <fragmenstein_error>  (88) 
None

>  <csv_name>  (88) 
D68EV3C_iter1_fstein_split1000_batch000.csv

>  <fragmenstein_mode>  (88) 
expansion

>  <HIPPO Compound ID>  (88) 
841

>  <HIPPO Pose ID>  (88) 
6021

>  <ref_mols>  (88) 
B0439a,B0454a

>  <fragmenstein_runtime>  (88) 
2.985705

>  <fragmenstein_outcome>  (88) 
acceptable

>  <distance_score>  (88) 
0.766657

>  <score_inspiration>  (88) 
0.722876

>  <original ID>  (88) 
HINZQSGCFNLQAV-UHFFFAOYSA-N

>  <ref_pdb>  (88) 
B0454a

>  <alias>  (88) 
None

$$$$
6696
     RDKit          3D

 32 35  0  0  0  0  0  0  0  0999 V2000
    6.2634   -1.0959   33.9334 C   0  0  0  0  0  0  0  0  0  0  0  0
    5.1221   -1.1735   34.7888 O   0  0  0  0  0  0  0  0  0  0  0  0
    4.1478   -1.9401   34.2050 C   0  0  0  0  0  0  0  0  0  0  0  0
    3.0626   -1.2732   33.6427 C   0  0  0  0  0  0  0  0  0  0  0  0
    2.0329   -1.9977   33.0484 C   0  0  0  0  0  0  0  0  0  0  0  0
    2.1113   -3.3865   32.9531 C   0  0  0  0  0  0  0  0  0  0  0  0
    1.0711   -4.1543   32.2321 C   0  0  0  0  0  0  0  0  0  0  0  0
    0.5212   -5.1709   32.9440 C   0  0  0  0  0  0  0  0  0  0  0  0
   -0.2798   -6.1157   32.3186 N   0  0  0  0  0  0  0  0  0  0  0  0
   -0.9233   -7.2547   32.7855 C   0  0  0  0  0  0  0  0  0  0  0  0
   -1.0059   -7.6002   34.0912 N   0  0  0  0  0  0  0  0  0  0  0  0
   -1.4235   -7.9112   31.7597 N   0  0  0  0  0  0  0  0  0  0  0  0
   -1.1617   -7.1904   30.6138 N   0  0  0  0  0  0  0  0  0  0  0  0
   -0.5240   -6.0891   30.9606 C   0  0  0  0  0  0  0  0  0  0  0  0
   -0.0995   -4.9311   30.2333 C   0  0  0  0  0  0  0  0  0  0  0  0
    0.6472   -3.9529   30.8041 C   0  0  0  0  0  0  0  0  0  0  0  0
    1.1355   -2.7398   29.9644 C   0  0  0  0  0  0  0  0  0  0  0  0
    0.0875   -1.9577   29.2293 N   0  0  0  0  0  0  0  0  0  0  0  0
   -0.5089   -0.5141   29.8893 S   0  0  0  0  0  0  0  0  0  0  0  0
   -1.7951   -0.8074   30.4833 O   0  0  0  0  0  0  0  0  0  0  0  0
    0.5446    0.0818   30.6851 O   0  0  0  0  0  0  0  0  0  0  0  0
   -0.8254    0.6370   28.5485 C   0  0  0  0  0  0  0  0  0  0  0  0
   -0.3041    1.9433   28.6275 C   0  0  0  0  0  0  0  0  0  0  0  0
   -0.7558    2.9470   27.7563 C   0  0  0  0  0  0  0  0  0  0  0  0
   -1.7098    2.6362   26.7970 C   0  0  0  0  0  0  0  0  0  0  0  0
   -2.2100    3.5868   25.9568 O   0  0  0  0  0  0  0  0  0  0  0  0
   -2.1898    1.3341   26.6806 C   0  0  0  0  0  0  0  0  0  0  0  0
   -1.7533    0.3260   27.5556 C   0  0  0  0  0  0  0  0  0  0  0  0
    3.1976   -4.0514   33.5669 C   0  0  0  0  0  0  0  0  0  0  0  0
    4.1902   -3.3365   34.2419 C   0  0  0  0  0  0  0  0  0  0  0  0
    5.2331   -3.9001   34.9257 O   0  0  0  0  0  0  0  0  0  0  0  0
    5.0376   -5.2163   35.4215 C   0  0  0  0  0  0  0  0  0  0  0  0
  1  2  1  0
  2  3  1  0
  3  4  2  0
  4  5  1  0
  5  6  2  0
  6  7  1  0
  7  8  2  0
  8  9  1  0
  9 10  1  0
 10 11  1  0
 10 12  2  0
 12 13  1  0
 13 14  2  0
 14 15  1  0
 15 16  2  0
 16 17  1  0
 17 18  1  0
 18 19  1  0
 19 20  2  0
 19 21  2  0
 19 22  1  0
 22 23  2  0
 23 24  1  0
 24 25  2  0
 25 26  1  0
 25 27  1  0
 27 28  2  0
  6 29  1  0
 29 30  2  0
 30 31  1  0
 31 32  1  0
 30  3  1  0
 16  7  1  0
 28 22  1  0
 14  9  1  0
M  END
>  <SLURM_JOB_ID>  (89) 
350558

>  <original SMILES>  (89) 
COc1ccc(-c2cn3c(N)nnc3cc2CNS(=O)(=O)c2ccc(O)cc2)cc1OC

>  <tags>  (89) 
Fragmenstein placed

>  <inchikey>  (89) 
XWNWUCBTZBBRJK-UHFFFAOYSA-N

>  <scratch_subdir>  (89) 
/opt/xchem-fragalysis-2/maxwin/BulkDock/SCRATCH/350558/C898-P44

>  <name>  (89) 
XWNWUCBTZBBRJK-UHFFFAOYSA-N

>  <energy_score>  (89) 
-21.71451

>  <fragmenstein_error>  (89) 
None

>  <csv_name>  (89) 
D68EV3C_iter1_fstein_split1000_batch000.csv

>  <fragmenstein_mode>  (89) 
expansion

>  <HIPPO Compound ID>  (89) 
898

>  <HIPPO Pose ID>  (89) 
6696

>  <ref_mols>  (89) 
7gp2-a,B0450a

>  <fragmenstein_runtime>  (89) 
6.965905

>  <fragmenstein_outcome>  (89) 
acceptable

>  <distance_score>  (89) 
0.901616

>  <score_inspiration>  (89) 
0.594842

>  <original ID>  (89) 
XWNWUCBTZBBRJK-UHFFFAOYSA-N

>  <ref_pdb>  (89) 
7gp2-a

>  <alias>  (89) 
None

$$$$
6698
     RDKit          3D

 32 35  0  0  0  0  0  0  0  0999 V2000
    6.2801   -1.0852   33.9478 C   0  0  0  0  0  0  0  0  0  0  0  0
    5.1321   -1.1551   34.7952 O   0  0  0  0  0  0  0  0  0  0  0  0
    4.1603   -1.9201   34.2050 C   0  0  0  0  0  0  0  0  0  0  0  0
    3.0831   -1.2505   33.6303 C   0  0  0  0  0  0  0  0  0  0  0  0
    2.0592   -1.9725   33.0240 C   0  0  0  0  0  0  0  0  0  0  0  0
    2.1369   -3.3602   32.9280 C   0  0  0  0  0  0  0  0  0  0  0  0
    1.1047   -4.1247   32.1933 C   0  0  0  0  0  0  0  0  0  0  0  0
    0.5516   -5.1403   32.9013 C   0  0  0  0  0  0  0  0  0  0  0  0
   -0.2200   -6.0982   32.2642 N   0  0  0  0  0  0  0  0  0  0  0  0
   -0.8239   -7.2556   32.7299 C   0  0  0  0  0  0  0  0  0  0  0  0
   -0.8633   -7.5981   34.0397 N   0  0  0  0  0  0  0  0  0  0  0  0
   -1.2808   -7.9424   31.7051 N   0  0  0  0  0  0  0  0  0  0  0  0
   -1.0318   -7.2180   30.5562 N   0  0  0  0  0  0  0  0  0  0  0  0
   -0.4295   -6.0948   30.9013 C   0  0  0  0  0  0  0  0  0  0  0  0
   -0.0039   -4.9375   30.1702 C   0  0  0  0  0  0  0  0  0  0  0  0
    0.7097   -3.9395   30.7543 C   0  0  0  0  0  0  0  0  0  0  0  0
    1.2170   -2.7295   29.9201 C   0  0  0  0  0  0  0  0  0  0  0  0
    0.1796   -1.9091   29.2073 N   0  0  0  0  0  0  0  0  0  0  0  0
   -0.3742   -0.4625   29.9049 S   0  0  0  0  0  0  0  0  0  0  0  0
   -1.6582   -0.7413   30.5103 O   0  0  0  0  0  0  0  0  0  0  0  0
    0.7037    0.0937   30.6954 O   0  0  0  0  0  0  0  0  0  0  0  0
   -0.6779    0.7264   28.5967 C   0  0  0  0  0  0  0  0  0  0  0  0
   -0.2074    2.0459   28.7389 C   0  0  0  0  0  0  0  0  0  0  0  0
   -0.6524    3.0633   27.8783 C   0  0  0  0  0  0  0  0  0  0  0  0
   -1.5539    2.7542   26.8709 C   0  0  0  0  0  0  0  0  0  0  0  0
   -2.0462    3.7052   26.0276 O   0  0  0  0  0  0  0  0  0  0  0  0
   -1.9842    1.4437   26.6996 C   0  0  0  0  0  0  0  0  0  0  0  0
   -1.5389    0.4183   27.5498 C   0  0  0  0  0  0  0  0  0  0  0  0
    3.2140   -4.0281   33.5554 C   0  0  0  0  0  0  0  0  0  0  0  0
    4.1996   -3.3166   34.2435 C   0  0  0  0  0  0  0  0  0  0  0  0
    5.2308   -3.8803   34.9447 O   0  0  0  0  0  0  0  0  0  0  0  0
    5.0485   -5.2132   35.3991 C   0  0  0  0  0  0  0  0  0  0  0  0
  1  2  1  0
  2  3  1  0
  3  4  2  0
  4  5  1  0
  5  6  2  0
  6  7  1  0
  7  8  2  0
  8  9  1  0
  9 10  1  0
 10 11  1  0
 10 12  2  0
 12 13  1  0
 13 14  2  0
 14 15  1  0
 15 16  2  0
 16 17  1  0
 17 18  1  0
 18 19  1  0
 19 20  2  0
 19 21  2  0
 19 22  1  0
 22 23  2  0
 23 24  1  0
 24 25  2  0
 25 26  1  0
 25 27  1  0
 27 28  2  0
  6 29  1  0
 29 30  2  0
 30 31  1  0
 31 32  1  0
 30  3  1  0
 16  7  1  0
 28 22  1  0
 14  9  1  0
M  END
>  <SLURM_JOB_ID>  (90) 
350558

>  <original SMILES>  (90) 
COc1ccc(-c2cn3c(N)nnc3cc2CNS(=O)(=O)c2ccc(O)cc2)cc1OC

>  <tags>  (90) 
Fragmenstein placed

>  <inchikey>  (90) 
XWNWUCBTZBBRJK-UHFFFAOYSA-N

>  <scratch_subdir>  (90) 
/opt/xchem-fragalysis-2/maxwin/BulkDock/SCRATCH/350558/C898-P132

>  <name>  (90) 
XWNWUCBTZBBRJK-UHFFFAOYSA-N

>  <energy_score>  (90) 
-22.03907

>  <fragmenstein_error>  (90) 
None

>  <csv_name>  (90) 
D68EV3C_iter1_fstein_split1000_batch000.csv

>  <fragmenstein_mode>  (90) 
expansion

>  <HIPPO Compound ID>  (90) 
898

>  <HIPPO Pose ID>  (90) 
6698

>  <ref_mols>  (90) 
7gp2-a,B0450a

>  <fragmenstein_runtime>  (90) 
6.792724

>  <fragmenstein_outcome>  (90) 
acceptable

>  <distance_score>  (90) 
0.915587

>  <score_inspiration>  (90) 
0.586533

>  <original ID>  (90) 
XWNWUCBTZBBRJK-UHFFFAOYSA-N

>  <ref_pdb>  (90) 
B0450a

>  <alias>  (90) 
None

$$$$
6704
     RDKit          3D

 31 34  0  0  0  0  0  0  0  0999 V2000
    6.0743   -1.3660   33.9986 C   0  0  0  0  0  0  0  0  0  0  0  0
    4.8040   -1.2862   34.6476 O   0  0  0  0  0  0  0  0  0  0  0  0
    3.9418   -2.2629   34.2185 C   0  0  0  0  0  0  0  0  0  0  0  0
    2.7502   -1.8125   33.6509 C   0  0  0  0  0  0  0  0  0  0  0  0
    1.8154   -2.7294   33.1764 C   0  0  0  0  0  0  0  0  0  0  0  0
    2.0951   -4.0980   33.2119 C   0  0  0  0  0  0  0  0  0  0  0  0
    1.2020   -5.0565   32.5354 C   0  0  0  0  0  0  0  0  0  0  0  0
    0.4259   -5.8489   33.3063 C   0  0  0  0  0  0  0  0  0  0  0  0
   -0.3730   -6.8239   32.7107 N   0  0  0  0  0  0  0  0  0  0  0  0
   -1.1894   -7.8008   33.2523 C   0  0  0  0  0  0  0  0  0  0  0  0
   -1.3867   -7.9517   34.5839 N   0  0  0  0  0  0  0  0  0  0  0  0
   -1.6986   -8.5350   32.2866 N   0  0  0  0  0  0  0  0  0  0  0  0
   -1.2620   -8.0276   31.0824 N   0  0  0  0  0  0  0  0  0  0  0  0
   -0.4426   -7.0296   31.3452 C   0  0  0  0  0  0  0  0  0  0  0  0
    0.3518   -6.1925   30.5216 C   0  0  0  0  0  0  0  0  0  0  0  0
    1.1501   -5.2401   31.0648 C   0  0  0  0  0  0  0  0  0  0  0  0
    2.0081   -4.3714   30.1699 C   0  0  0  0  0  0  0  0  0  0  0  0
    1.4522   -3.0264   29.9710 N   0  0  0  0  0  0  0  0  0  0  0  0
   -0.1185   -2.9545   29.3646 S   0  0  0  0  0  0  0  0  0  0  0  0
   -0.1259   -3.6672   28.1106 O   0  0  0  0  0  0  0  0  0  0  0  0
   -1.0047   -3.3288   30.4541 O   0  0  0  0  0  0  0  0  0  0  0  0
   -0.5531   -1.2846   29.0507 C   0  0  0  0  0  0  0  0  0  0  0  0
   -1.4302   -0.5778   29.9112 C   0  0  0  0  0  0  0  0  0  0  0  0
   -1.7175    0.5694   29.2309 C   0  0  0  0  0  0  0  0  0  0  0  0
   -0.9526    0.5625   28.1089 N   0  0  0  0  0  0  0  0  0  0  0  0
   -0.9851    1.5789   27.0877 C   0  0  0  0  0  0  0  0  0  0  0  0
   -0.1684   -0.5259   28.0041 N   0  0  0  0  0  0  0  0  0  0  0  0
    3.2637   -4.5483   33.8452 C   0  0  0  0  0  0  0  0  0  0  0  0
    4.1714   -3.6354   34.3941 C   0  0  0  0  0  0  0  0  0  0  0  0
    5.2906   -3.9881   35.0975 O   0  0  0  0  0  0  0  0  0  0  0  0
    5.3318   -5.3084   35.6229 C   0  0  0  0  0  0  0  0  0  0  0  0
  1  2  1  0
  2  3  1  0
  3  4  2  0
  4  5  1  0
  5  6  2  0
  6  7  1  0
  7  8  2  0
  8  9  1  0
  9 10  1  0
 10 11  1  0
 10 12  2  0
 12 13  1  0
 13 14  2  0
 14 15  1  0
 15 16  2  0
 16 17  1  0
 17 18  1  0
 18 19  1  0
 19 20  2  0
 19 21  2  0
 19 22  1  0
 22 23  1  0
 23 24  2  0
 24 25  1  0
 25 26  1  0
 25 27  1  0
  6 28  1  0
 28 29  2  0
 29 30  1  0
 30 31  1  0
 29  3  1  0
 16  7  1  0
 27 22  2  0
 14  9  1  0
M  END
>  <SLURM_JOB_ID>  (91) 
350558

>  <original SMILES>  (91) 
COc1ccc(-c2cn3c(N)nnc3cc2CNS(=O)(=O)c2ccn(C)n2)cc1OC

>  <tags>  (91) 
Fragmenstein placed

>  <inchikey>  (91) 
DJBIKPKHMQFQII-UHFFFAOYSA-N

>  <scratch_subdir>  (91) 
/opt/xchem-fragalysis-2/maxwin/BulkDock/SCRATCH/350558/C900-P70

>  <name>  (91) 
DJBIKPKHMQFQII-UHFFFAOYSA-N

>  <energy_score>  (91) 
-60.211521

>  <fragmenstein_error>  (91) 
None

>  <csv_name>  (91) 
D68EV3C_iter1_fstein_split1000_batch000.csv

>  <fragmenstein_mode>  (91) 
expansion

>  <HIPPO Compound ID>  (91) 
900

>  <HIPPO Pose ID>  (91) 
6704

>  <ref_mols>  (91) 
7gpm-a,B0450a

>  <fragmenstein_runtime>  (91) 
2.951711

>  <fragmenstein_outcome>  (91) 
acceptable

>  <distance_score>  (91) 
0.835964

>  <score_inspiration>  (91) 
0.662671

>  <original ID>  (91) 
DJBIKPKHMQFQII-UHFFFAOYSA-N

>  <ref_pdb>  (91) 
7gpm-a

>  <alias>  (91) 
None

$$$$
6705
     RDKit          3D

 31 34  0  0  0  0  0  0  0  0999 V2000
    6.1905   -1.2571   34.0417 C   0  0  0  0  0  0  0  0  0  0  0  0
    4.9560   -1.1982   34.7587 O   0  0  0  0  0  0  0  0  0  0  0  0
    4.0706   -2.1542   34.3349 C   0  0  0  0  0  0  0  0  0  0  0  0
    2.8561   -1.6816   33.8401 C   0  0  0  0  0  0  0  0  0  0  0  0
    1.9043   -2.5791   33.3665 C   0  0  0  0  0  0  0  0  0  0  0  0
    2.1942   -3.9444   33.3228 C   0  0  0  0  0  0  0  0  0  0  0  0
    1.2929   -4.8705   32.6236 C   0  0  0  0  0  0  0  0  0  0  0  0
    0.4867   -5.6523   33.3747 C   0  0  0  0  0  0  0  0  0  0  0  0
   -0.3300   -6.5960   32.7557 N   0  0  0  0  0  0  0  0  0  0  0  0
   -1.1817   -7.5571   33.2629 C   0  0  0  0  0  0  0  0  0  0  0  0
   -1.4003   -7.7562   34.5843 N   0  0  0  0  0  0  0  0  0  0  0  0
   -1.6760   -8.2655   32.2697 N   0  0  0  0  0  0  0  0  0  0  0  0
   -1.1735   -7.7797   31.0884 N   0  0  0  0  0  0  0  0  0  0  0  0
   -0.3644   -6.7887   31.3871 C   0  0  0  0  0  0  0  0  0  0  0  0
    0.4422   -5.9436   30.5923 C   0  0  0  0  0  0  0  0  0  0  0  0
    1.2422   -5.0087   31.1512 C   0  0  0  0  0  0  0  0  0  0  0  0
    2.0813   -4.1186   30.2543 C   0  0  0  0  0  0  0  0  0  0  0  0
    1.5871   -2.7323   30.1674 N   0  0  0  0  0  0  0  0  0  0  0  0
   -0.0440   -2.5385   29.7361 S   0  0  0  0  0  0  0  0  0  0  0  0
   -0.2625   -3.3938   28.5963 O   0  0  0  0  0  0  0  0  0  0  0  0
   -0.8019   -2.6576   30.9665 O   0  0  0  0  0  0  0  0  0  0  0  0
   -0.3054   -0.8796   29.2353 C   0  0  0  0  0  0  0  0  0  0  0  0
    0.2326    0.2402   29.9152 C   0  0  0  0  0  0  0  0  0  0  0  0
   -0.2472    1.3293   29.2275 C   0  0  0  0  0  0  0  0  0  0  0  0
   -1.0306    0.8357   28.2255 N   0  0  0  0  0  0  0  0  0  0  0  0
   -1.7333    1.6094   27.2306 C   0  0  0  0  0  0  0  0  0  0  0  0
   -1.0997   -0.5003   28.2214 N   0  0  0  0  0  0  0  0  0  0  0  0
    3.3819   -4.4210   33.8934 C   0  0  0  0  0  0  0  0  0  0  0  0
    4.3032   -3.5310   34.4496 C   0  0  0  0  0  0  0  0  0  0  0  0
    5.4466   -3.9220   35.0890 O   0  0  0  0  0  0  0  0  0  0  0  0
    5.4166   -5.1999   35.7130 C   0  0  0  0  0  0  0  0  0  0  0  0
  1  2  1  0
  2  3  1  0
  3  4  2  0
  4  5  1  0
  5  6  2  0
  6  7  1  0
  7  8  2  0
  8  9  1  0
  9 10  1  0
 10 11  1  0
 10 12  2  0
 12 13  1  0
 13 14  2  0
 14 15  1  0
 15 16  2  0
 16 17  1  0
 17 18  1  0
 18 19  1  0
 19 20  2  0
 19 21  2  0
 19 22  1  0
 22 23  1  0
 23 24  2  0
 24 25  1  0
 25 26  1  0
 25 27  1  0
  6 28  1  0
 28 29  2  0
 29 30  1  0
 30 31  1  0
 29  3  1  0
 16  7  1  0
 27 22  2  0
 14  9  1  0
M  END
>  <SLURM_JOB_ID>  (92) 
350558

>  <original SMILES>  (92) 
COc1ccc(-c2cn3c(N)nnc3cc2CNS(=O)(=O)c2ccn(C)n2)cc1OC

>  <tags>  (92) 
Fragmenstein placed

>  <inchikey>  (92) 
DJBIKPKHMQFQII-UHFFFAOYSA-N

>  <scratch_subdir>  (92) 
/opt/xchem-fragalysis-2/maxwin/BulkDock/SCRATCH/350558/C900-P132

>  <name>  (92) 
DJBIKPKHMQFQII-UHFFFAOYSA-N

>  <energy_score>  (92) 
-59.460047

>  <fragmenstein_error>  (92) 
None

>  <csv_name>  (92) 
D68EV3C_iter1_fstein_split1000_batch000.csv

>  <fragmenstein_mode>  (92) 
expansion

>  <HIPPO Compound ID>  (92) 
900

>  <HIPPO Pose ID>  (92) 
6705

>  <ref_mols>  (92) 
7gpm-a,B0450a

>  <fragmenstein_runtime>  (92) 
3.554047

>  <fragmenstein_outcome>  (92) 
acceptable

>  <distance_score>  (92) 
0.831706

>  <score_inspiration>  (92) 
0.655389

>  <original ID>  (92) 
DJBIKPKHMQFQII-UHFFFAOYSA-N

>  <ref_pdb>  (92) 
B0450a

>  <alias>  (92) 
None

$$$$
6871
     RDKit          3D

 20 22  0  0  0  0  0  0  0  0999 V2000
    1.4149   -2.6041   33.1784 C   0  0  0  0  0  0  0  0  0  0  0  0
    0.2253   -2.9434   32.4055 N   0  0  0  0  0  0  0  0  0  0  0  0
   -0.7524   -1.8394   32.4298 C   0  0  0  0  0  0  0  0  0  0  0  0
   -0.7382   -1.0985   31.1038 C   0  0  0  0  0  0  0  0  0  0  0  0
   -1.3995   -1.6078   29.9769 C   0  0  0  0  0  0  0  0  0  0  0  0
   -1.3233   -0.9633   28.7388 C   0  0  0  0  0  0  0  0  0  0  0  0
   -0.6570    0.2519   28.6155 C   0  0  0  0  0  0  0  0  0  0  0  0
   -0.5268    0.8657   27.3641 N   0  0  0  0  0  0  0  0  0  0  0  0
    0.0381    0.7461   29.7197 C   0  0  0  0  0  0  0  0  0  0  0  0
   -0.0065    0.0854   30.9539 C   0  0  0  0  0  0  0  0  0  0  0  0
   -0.3076   -4.2921   32.6097 C   0  0  2  0  0  0  0  0  0  0  0  0
   -1.5869   -4.3503   31.9755 O   0  0  0  0  0  0  0  0  0  0  0  0
   -0.4479   -4.7463   34.0869 C   0  0  0  0  0  0  0  0  0  0  0  0
   -0.8431   -6.2311   34.2830 C   0  0  0  0  0  0  0  0  0  0  0  0
   -0.8154   -7.0235   33.0308 C   0  0  0  0  0  0  0  0  0  0  0  0
   -1.5058   -8.0918   32.6975 N   0  0  0  0  0  0  0  0  0  0  0  0
   -1.1963   -8.4061   31.3910 N   0  0  0  0  0  0  0  0  0  0  0  0
   -0.3134   -7.5292   30.9726 C   0  0  0  0  0  0  0  0  0  0  0  0
   -0.0726   -6.6335   31.9560 N   0  0  0  0  0  0  0  0  0  0  0  0
    0.5763   -5.3404   31.8708 C   0  0  0  0  0  0  0  0  0  0  0  0
  1  2  1  0
  2  3  1  0
  3  4  1  0
  4  5  2  0
  5  6  1  0
  6  7  2  0
  7  8  1  0
  7  9  1  0
  9 10  2  0
  2 11  1  0
 11 12  1  6
 11 13  1  0
 13 14  1  0
 14 15  1  0
 15 16  2  0
 16 17  1  0
 17 18  2  0
 18 19  1  0
 19 20  1  0
 10  4  1  0
 20 11  1  0
 19 15  1  0
M  END
>  <SLURM_JOB_ID>  (93) 
350558

>  <original SMILES>  (93) 
CN(Cc1ccc(N)cc1)[C@]1(O)CCc2nncn2C1

>  <tags>  (93) 
Fragmenstein placed

>  <inchikey>  (93) 
QDIUYSLVZGQQOA-AWEZNQCLSA-N

>  <scratch_subdir>  (93) 
/opt/xchem-fragalysis-2/maxwin/BulkDock/SCRATCH/350558/C933-P78

>  <name>  (93) 
QDIUYSLVZGQQOA-AWEZNQCLSA-N

>  <energy_score>  (93) 
-45.436957

>  <fragmenstein_error>  (93) 
None

>  <csv_name>  (93) 
D68EV3C_iter1_fstein_split1000_batch000.csv

>  <fragmenstein_mode>  (93) 
expansion

>  <HIPPO Compound ID>  (93) 
933

>  <HIPPO Pose ID>  (93) 
6871

>  <ref_mols>  (93) 
7gqh-a,B0454a

>  <fragmenstein_runtime>  (93) 
4.98925

>  <fragmenstein_outcome>  (93) 
acceptable

>  <distance_score>  (93) 
0.917502

>  <score_inspiration>  (93) 
0.743493

>  <original ID>  (93) 
QDIUYSLVZGQQOA-AWEZNQCLSA-N

>  <ref_pdb>  (93) 
7gqh-a

>  <alias>  (93) 
None

$$$$
6872
     RDKit          3D

 20 22  0  0  0  0  0  0  0  0999 V2000
    1.3804   -2.5477   33.5804 C   0  0  0  0  0  0  0  0  0  0  0  0
    0.1829   -2.8349   32.8160 N   0  0  0  0  0  0  0  0  0  0  0  0
   -0.7161   -1.6901   32.6842 C   0  0  0  0  0  0  0  0  0  0  0  0
   -0.7190   -1.1335   31.2765 C   0  0  0  0  0  0  0  0  0  0  0  0
   -1.2206   -1.8807   30.2029 C   0  0  0  0  0  0  0  0  0  0  0  0
   -1.2460   -1.3507   28.9109 C   0  0  0  0  0  0  0  0  0  0  0  0
   -0.8399   -0.0398   28.6759 C   0  0  0  0  0  0  0  0  0  0  0  0
   -0.8489    0.4860   27.3816 N   0  0  0  0  0  0  0  0  0  0  0  0
   -0.2811    0.6870   29.7250 C   0  0  0  0  0  0  0  0  0  0  0  0
   -0.2257    0.1510   31.0159 C   0  0  0  0  0  0  0  0  0  0  0  0
   -0.3850   -4.1784   32.8922 C   0  0  2  0  0  0  0  0  0  0  0  0
   -1.7789   -4.1418   32.5804 O   0  0  0  0  0  0  0  0  0  0  0  0
   -0.1809   -4.9174   34.2511 C   0  0  0  0  0  0  0  0  0  0  0  0
   -0.7052   -6.3708   34.2739 C   0  0  0  0  0  0  0  0  0  0  0  0
   -0.7643   -6.9877   32.9275 C   0  0  0  0  0  0  0  0  0  0  0  0
   -1.3598   -8.0981   32.5509 N   0  0  0  0  0  0  0  0  0  0  0  0
   -1.2325   -8.2106   31.1836 N   0  0  0  0  0  0  0  0  0  0  0  0
   -0.5700   -7.1603   30.7668 C   0  0  0  0  0  0  0  0  0  0  0  0
   -0.2606   -6.3743   31.8203 N   0  0  0  0  0  0  0  0  0  0  0  0
    0.2846   -5.0360   31.7940 C   0  0  0  0  0  0  0  0  0  0  0  0
  1  2  1  0
  2  3  1  0
  3  4  1  0
  4  5  2  0
  5  6  1  0
  6  7  2  0
  7  8  1  0
  7  9  1  0
  9 10  2  0
  2 11  1  0
 11 12  1  6
 11 13  1  0
 13 14  1  0
 14 15  1  0
 15 16  2  0
 16 17  1  0
 17 18  2  0
 18 19  1  0
 19 20  1  0
 10  4  1  0
 20 11  1  0
 19 15  1  0
M  END
>  <SLURM_JOB_ID>  (94) 
350558

>  <original SMILES>  (94) 
CN(Cc1ccc(N)cc1)[C@]1(O)CCc2nncn2C1

>  <tags>  (94) 
Fragmenstein placed

>  <inchikey>  (94) 
QDIUYSLVZGQQOA-AWEZNQCLSA-N

>  <scratch_subdir>  (94) 
/opt/xchem-fragalysis-2/maxwin/BulkDock/SCRATCH/350558/C933-P134

>  <name>  (94) 
QDIUYSLVZGQQOA-AWEZNQCLSA-N

>  <energy_score>  (94) 
-44.905937

>  <fragmenstein_error>  (94) 
None

>  <csv_name>  (94) 
D68EV3C_iter1_fstein_split1000_batch000.csv

>  <fragmenstein_mode>  (94) 
expansion

>  <HIPPO Compound ID>  (94) 
933

>  <HIPPO Pose ID>  (94) 
6872

>  <ref_mols>  (94) 
7gqh-a,B0454a

>  <fragmenstein_runtime>  (94) 
4.973319

>  <fragmenstein_outcome>  (94) 
acceptable

>  <distance_score>  (94) 
0.8815

>  <score_inspiration>  (94) 
0.74614

>  <original ID>  (94) 
QDIUYSLVZGQQOA-AWEZNQCLSA-N

>  <ref_pdb>  (94) 
B0454a

>  <alias>  (94) 
None

$$$$
7024
     RDKit          3D

 30 33  0  0  0  0  0  0  0  0999 V2000
    2.2257    2.2741   35.5776 C   0  0  0  0  0  0  0  0  0  0  0  0
    2.0130    0.9746   35.0108 N   0  0  0  0  0  0  0  0  0  0  0  0
    3.0175   -0.0483   34.4497 C   0  0  0  0  0  0  0  0  0  0  0  0
    4.1816   -0.0298   34.4292 O   0  0  0  0  0  0  0  0  0  0  0  0
    2.3141   -1.2427   33.8883 C   0  0  0  0  0  0  0  0  0  0  0  0
    1.1526   -1.1189   33.1166 C   0  0  0  0  0  0  0  0  0  0  0  0
    0.5199   -2.2617   32.6158 C   0  0  0  0  0  0  0  0  0  0  0  0
    1.0632   -3.5329   32.8462 C   0  0  0  0  0  0  0  0  0  0  0  0
    0.4476   -4.7411   32.2568 C   0  0  0  0  0  0  0  0  0  0  0  0
   -0.0999   -5.6186   33.1291 C   0  0  0  0  0  0  0  0  0  0  0  0
   -0.6438   -6.8139   32.6682 N   0  0  0  0  0  0  0  0  0  0  0  0
   -1.2982   -7.8502   33.3155 C   0  0  0  0  0  0  0  0  0  0  0  0
   -1.5397   -7.8835   34.6427 N   0  0  0  0  0  0  0  0  0  0  0  0
   -1.6753   -8.7459   32.4267 N   0  0  0  0  0  0  0  0  0  0  0  0
   -1.2933   -8.3115   31.1776 N   0  0  0  0  0  0  0  0  0  0  0  0
   -0.6436   -7.1786   31.3342 C   0  0  0  0  0  0  0  0  0  0  0  0
   -0.0613   -6.2799   30.4048 C   0  0  0  0  0  0  0  0  0  0  0  0
    0.4234   -5.0799   30.8071 C   0  0  0  0  0  0  0  0  0  0  0  0
    0.7880   -4.0691   29.7330 C   0  0  0  0  0  0  0  0  0  0  0  0
    1.9602   -3.2789   30.1047 N   0  0  0  0  0  0  0  0  0  0  0  0
    2.3057   -1.9591   29.1086 S   0  0  0  0  0  0  0  0  0  0  0  0
    2.6117   -2.4957   27.8040 O   0  0  0  0  0  0  0  0  0  0  0  0
    3.2461   -1.1270   29.8264 O   0  0  0  0  0  0  0  0  0  0  0  0
    0.8664   -0.9703   28.9136 C   0  0  0  0  0  0  0  0  0  0  0  0
    0.6902    0.2690   29.4989 C   0  0  0  0  0  0  0  0  0  0  0  0
   -0.8703    0.8670   29.1198 S   0  0  0  0  0  0  0  0  0  0  0  0
   -1.1913   -0.5369   28.2060 C   0  0  0  0  0  0  0  0  0  0  0  0
   -0.2397   -1.4401   28.2025 N   0  0  0  0  0  0  0  0  0  0  0  0
    2.2420   -3.6462   33.5997 C   0  0  0  0  0  0  0  0  0  0  0  0
    2.8641   -2.5078   34.1178 C   0  0  0  0  0  0  0  0  0  0  0  0
  1  2  1  0
  2  3  1  0
  3  4  2  0
  3  5  1  0
  5  6  2  0
  6  7  1  0
  7  8  2  0
  8  9  1  0
  9 10  2  0
 10 11  1  0
 11 12  1  0
 12 13  1  0
 12 14  2  0
 14 15  1  0
 15 16  2  0
 16 17  1  0
 17 18  2  0
 18 19  1  0
 19 20  1  0
 20 21  1  0
 21 22  2  0
 21 23  2  0
 21 24  1  0
 24 25  2  0
 25 26  1  0
 26 27  1  0
 27 28  2  0
  8 29  1  0
 29 30  2  0
 30  5  1  0
 18  9  1  0
 28 24  1  0
 16 11  1  0
M  END
>  <SLURM_JOB_ID>  (95) 
350558

>  <original SMILES>  (95) 
CNC(=O)c1ccc(-c2cn3c(N)nnc3cc2CNS(=O)(=O)c2cscn2)cc1

>  <tags>  (95) 
Fragmenstein placed

>  <inchikey>  (95) 
MMMSZMUZWHYISC-UHFFFAOYSA-N

>  <scratch_subdir>  (95) 
/opt/xchem-fragalysis-2/maxwin/BulkDock/SCRATCH/350558/C962-P70

>  <name>  (95) 
MMMSZMUZWHYISC-UHFFFAOYSA-N

>  <energy_score>  (95) 
-73.974924

>  <fragmenstein_error>  (95) 
None

>  <csv_name>  (95) 
D68EV3C_iter1_fstein_split1000_batch000.csv

>  <fragmenstein_mode>  (95) 
expansion

>  <HIPPO Compound ID>  (95) 
962

>  <HIPPO Pose ID>  (95) 
7024

>  <ref_mols>  (95) 
7gpm-a,B0455a

>  <fragmenstein_runtime>  (95) 
3.276448

>  <fragmenstein_outcome>  (95) 
acceptable

>  <distance_score>  (95) 
0.936341

>  <score_inspiration>  (95) 
0.616732

>  <original ID>  (95) 
MMMSZMUZWHYISC-UHFFFAOYSA-N

>  <ref_pdb>  (95) 
7gpm-a

>  <alias>  (95) 
None

$$$$
7054
     RDKit          3D

 22 25  0  0  0  0  0  0  0  0999 V2000
    1.8454   -4.4249   37.4406 O   0  0  0  0  0  0  0  0  0  0  0  0
    2.2237   -3.0579   37.1539 S   0  0  0  0  0  0  0  0  0  0  0  0
    1.2546   -2.0310   36.8444 O   0  0  0  0  0  0  0  0  0  0  0  0
    3.5981   -3.0516   35.9773 C   0  0  1  0  0  0  0  0  0  0  0  0
    3.0814   -2.8322   34.5776 C   0  0  0  0  0  0  0  0  0  0  0  0
    2.4415   -3.8997   33.9203 C   0  0  0  0  0  0  0  0  0  0  0  0
    1.9258   -3.7465   32.6327 C   0  0  0  0  0  0  0  0  0  0  0  0
    2.0452   -2.5254   31.9772 C   0  0  0  0  0  0  0  0  0  0  0  0
    2.6819   -1.4603   32.6082 C   0  0  0  0  0  0  0  0  0  0  0  0
    3.1975   -1.6109   33.8986 C   0  0  0  0  0  0  0  0  0  0  0  0
    4.5806   -2.0509   36.5871 C   0  0  0  0  0  0  0  0  0  0  0  0
    4.6029   -2.3892   38.0789 C   0  0  0  0  0  0  0  0  0  0  0  0
    3.1785   -2.4678   38.4831 N   0  0  0  0  0  0  0  0  0  0  0  0
    2.7192   -2.8983   39.7749 C   0  0  0  0  0  0  0  0  0  0  0  0
    3.5367   -3.6850   40.5045 C   0  0  0  0  0  0  0  0  0  0  0  0
    3.0949   -4.1620   41.8099 C   0  0  0  0  0  0  0  0  0  0  0  0
    1.8944   -3.8236   42.3148 C   0  0  0  0  0  0  0  0  0  0  0  0
    1.0406   -2.9673   41.5715 C   0  0  0  0  0  0  0  0  0  0  0  0
   -0.1394   -2.4511   41.8362 N   0  0  0  0  0  0  0  0  0  0  0  0
   -0.4875   -1.6417   40.7807 N   0  0  0  0  0  0  0  0  0  0  0  0
    0.4878   -1.6887   39.8996 C   0  0  0  0  0  0  0  0  0  0  0  0
    1.4781   -2.5324   40.3254 N   0  0  0  0  0  0  0  0  0  0  0  0
  1  2  2  0
  2  3  2  0
  2  4  1  0
  4  5  1  6
  5  6  2  0
  6  7  1  0
  7  8  2  0
  8  9  1  0
  9 10  2  0
  4 11  1  0
 11 12  1  0
 12 13  1  0
 13 14  1  0
 14 15  2  0
 15 16  1  0
 16 17  2  0
 17 18  1  0
 18 19  2  0
 19 20  1  0
 20 21  2  0
 21 22  1  0
 13  2  1  0
 22 14  1  0
 10  5  1  0
 22 18  1  0
M  END
>  <SLURM_JOB_ID>  (96) 
350558

>  <original SMILES>  (96) 
O=S1(=O)[C@@H](c2ccccc2)CCN1c1cccc2nncn12

>  <tags>  (96) 
Fragmenstein placed

>  <inchikey>  (96) 
YWAUSXIRKVBYLY-CYBMUJFWSA-N

>  <scratch_subdir>  (96) 
/opt/xchem-fragalysis-2/maxwin/BulkDock/SCRATCH/350558/C117-P128

>  <name>  (96) 
YWAUSXIRKVBYLY-CYBMUJFWSA-N

>  <energy_score>  (96) 
-40.773593

>  <fragmenstein_error>  (96) 
None

>  <csv_name>  (96) 
D68EV3C_iter1_fstein_split1000_batch000.csv

>  <fragmenstein_mode>  (96) 
expansion

>  <HIPPO Compound ID>  (96) 
117

>  <HIPPO Pose ID>  (96) 
7054

>  <ref_mols>  (96) 
B0436a,B0525a

>  <fragmenstein_runtime>  (96) 
60.765834

>  <fragmenstein_outcome>  (96) 
acceptable

>  <distance_score>  (96) 
0.655188

>  <score_inspiration>  (96) 
0.251786

>  <original ID>  (96) 
YWAUSXIRKVBYLY-CYBMUJFWSA-N

>  <ref_pdb>  (96) 
B0436a

>  <alias>  (96) 
None

$$$$
7082
     RDKit          3D

 36 41  0  0  0  0  0  0  0  0999 V2000
    2.7046   -6.0599   35.9978 O   0  0  0  0  0  0  0  0  0  0  0  0
    1.4433   -6.7719   35.9454 S   0  0  0  0  0  0  0  0  0  0  0  0
    1.4519   -8.1508   35.5059 O   0  0  0  0  0  0  0  0  0  0  0  0
    0.5643   -6.6120   37.4972 C   0  0  1  0  0  0  0  0  0  0  0  0
    1.2482   -7.2864   38.6695 C   0  0  0  0  0  0  0  0  0  0  0  0
    2.5944   -7.6637   38.7296 C   0  0  0  0  0  0  0  0  0  0  0  0
    3.1063   -8.3016   39.8637 C   0  0  0  0  0  0  0  0  0  0  0  0
    2.2866   -8.5645   40.9576 C   0  0  0  0  0  0  0  0  0  0  0  0
    0.9536   -8.1797   40.9279 C   0  0  0  0  0  0  0  0  0  0  0  0
    0.4461   -7.5422   39.7995 C   0  0  0  0  0  0  0  0  0  0  0  0
    0.2556   -5.1431   37.7904 C   0  0  0  0  0  0  0  0  0  0  0  0
   -0.6807   -4.5628   36.7416 C   0  0  0  0  0  0  0  0  0  0  0  0
   -0.0407   -4.5094   35.3688 C   0  0  0  0  0  0  0  0  0  0  0  0
    0.3891   -5.8742   34.7729 C   0  0  2  0  0  0  0  0  0  0  0  0
   -0.8224   -6.7854   34.4083 C   0  0  0  0  0  0  0  0  0  0  0  0
   -0.9459   -7.0672   32.9516 C   0  0  0  0  0  0  0  0  0  0  0  0
   -1.5857   -8.0485   32.3544 N   0  0  0  0  0  0  0  0  0  0  0  0
   -1.3877   -7.9199   30.9994 N   0  0  0  0  0  0  0  0  0  0  0  0
   -0.6489   -6.8547   30.8032 C   0  0  0  0  0  0  0  0  0  0  0  0
   -0.3496   -6.2922   31.9952 N   0  0  0  0  0  0  0  0  0  0  0  0
    0.4922   -5.1565   32.3183 C   0  0  2  0  0  0  0  0  0  0  0  0
    1.4306   -4.6954   31.1861 C   0  0  0  0  0  0  0  0  0  0  0  0
    0.8488   -3.5139   30.5262 N   0  0  0  0  0  0  0  0  0  0  0  0
    1.0168   -3.5088   29.0583 C   0  0  0  0  0  0  0  0  0  0  0  0
    2.4543   -3.4988   28.6291 C   0  0  0  0  0  0  0  0  0  0  0  0
    3.0737   -4.5685   28.1103 N   0  0  0  0  0  0  0  0  0  0  0  0
    4.2794   -4.0527   27.8026 N   0  0  0  0  0  0  0  0  0  0  0  0
    4.3925   -2.7434   28.1915 C   0  0  0  0  0  0  0  0  0  0  0  0
    5.5836   -1.9106   28.0087 C   0  0  0  0  0  0  0  0  0  0  0  0
    6.7273   -2.3631   27.3329 C   0  0  0  0  0  0  0  0  0  0  0  0
    7.8443   -1.5337   27.1855 C   0  0  0  0  0  0  0  0  0  0  0  0
    7.8330   -0.2417   27.7047 C   0  0  0  0  0  0  0  0  0  0  0  0
    6.7045    0.2249   28.3724 C   0  0  0  0  0  0  0  0  0  0  0  0
    5.5894   -0.6041   28.5221 C   0  0  0  0  0  0  0  0  0  0  0  0
    3.2473   -2.3865   28.7481 N   0  0  0  0  0  0  0  0  0  0  0  0
    1.2945   -5.5475   33.5529 C   0  0  0  0  0  0  0  0  0  0  0  0
  1  2  2  0
  2  3  2  0
  2  4  1  0
  4  5  1  1
  5  6  2  0
  6  7  1  0
  7  8  2  0
  8  9  1  0
  9 10  2  0
  4 11  1  0
 11 12  1  0
 12 13  1  0
 14 13  1  1
 14 15  1  0
 15 16  1  0
 16 17  2  0
 17 18  1  0
 18 19  2  0
 19 20  1  0
 20 21  1  0
 21 22  1  6
 22 23  1  0
 23 24  1  0
 24 25  1  0
 25 26  2  0
 26 27  1  0
 27 28  1  0
 28 29  1  0
 29 30  2  0
 30 31  1  0
 31 32  2  0
 32 33  1  0
 33 34  2  0
 28 35  2  0
 21 36  1  0
 14  2  1  0
 20 16  1  0
 35 25  1  0
 10  5  1  0
 36 14  1  0
 34 29  1  0
M  END
>  <SLURM_JOB_ID>  (97) 
350558

>  <original SMILES>  (97) 
O=S1(=O)[C@@H](c2ccccc2)CCC[C@]12Cc1nncn1[C@H](CNCc1n[nH]c(-c3ccccc3)n1)C2

>  <tags>  (97) 
Fragmenstein placed

>  <inchikey>  (97) 
ZTWXEBUXALNNFU-VRUMLPLGSA-N

>  <scratch_subdir>  (97) 
/opt/xchem-fragalysis-2/maxwin/BulkDock/SCRATCH/350558/C1033-P144

>  <name>  (97) 
ZTWXEBUXALNNFU-VRUMLPLGSA-N

>  <energy_score>  (97) 
-77.225068

>  <fragmenstein_error>  (97) 
None

>  <csv_name>  (97) 
D68EV3C_iter1_fstein_split1000_batch000.csv

>  <fragmenstein_mode>  (97) 
expansion

>  <HIPPO Compound ID>  (97) 
1033

>  <HIPPO Pose ID>  (97) 
7082

>  <ref_mols>  (97) 
B0691a,B1219a

>  <fragmenstein_runtime>  (97) 
6.986907

>  <fragmenstein_outcome>  (97) 
acceptable

>  <distance_score>  (97) 
0.995054

>  <score_inspiration>  (97) 
0.490585

>  <original ID>  (97) 
ZTWXEBUXALNNFU-VRUMLPLGSA-N

>  <ref_pdb>  (97) 
B0691a

>  <alias>  (97) 
None

$$$$
7083
     RDKit          3D

 36 41  0  0  0  0  0  0  0  0999 V2000
    2.6821   -6.5316   35.8112 O   0  0  0  0  0  0  0  0  0  0  0  0
    1.2447   -6.7286   35.8460 S   0  0  0  0  0  0  0  0  0  0  0  0
    0.7123   -8.0386   35.5456 O   0  0  0  0  0  0  0  0  0  0  0  0
    0.5598   -6.1977   37.4216 C   0  0  1  0  0  0  0  0  0  0  0  0
    1.2576   -6.9295   38.5511 C   0  0  0  0  0  0  0  0  0  0  0  0
    2.6061   -6.7337   38.8780 C   0  0  0  0  0  0  0  0  0  0  0  0
    3.1973   -7.4446   39.9269 C   0  0  0  0  0  0  0  0  0  0  0  0
    2.4494   -8.3488   40.6750 C   0  0  0  0  0  0  0  0  0  0  0  0
    1.1102   -8.5455   40.3732 C   0  0  0  0  0  0  0  0  0  0  0  0
    0.5259   -7.8407   39.3235 C   0  0  0  0  0  0  0  0  0  0  0  0
    0.5686   -4.6849   37.5883 C   0  0  0  0  0  0  0  0  0  0  0  0
   -0.2198   -3.9997   36.4775 C   0  0  0  0  0  0  0  0  0  0  0  0
    0.4827   -4.1588   35.1388 C   0  0  0  0  0  0  0  0  0  0  0  0
    0.5335   -5.6062   34.5972 C   0  0  2  0  0  0  0  0  0  0  0  0
   -0.8898   -6.1144   34.2273 C   0  0  0  0  0  0  0  0  0  0  0  0
   -0.9058   -6.9410   32.9904 C   0  0  0  0  0  0  0  0  0  0  0  0
   -1.6724   -7.9491   32.6464 N   0  0  0  0  0  0  0  0  0  0  0  0
   -1.3418   -8.3133   31.3590 N   0  0  0  0  0  0  0  0  0  0  0  0
   -0.3677   -7.5284   30.9641 C   0  0  0  0  0  0  0  0  0  0  0  0
   -0.0907   -6.6352   31.9388 N   0  0  0  0  0  0  0  0  0  0  0  0
    0.8444   -5.5271   32.0085 C   0  0  2  0  0  0  0  0  0  0  0  0
    1.9005   -5.5267   30.8924 C   0  0  0  0  0  0  0  0  0  0  0  0
    2.4802   -4.1987   30.6461 N   0  0  0  0  0  0  0  0  0  0  0  0
    2.3320   -3.7918   29.2218 C   0  0  0  0  0  0  0  0  0  0  0  0
    3.1815   -4.6092   28.2767 C   0  0  0  0  0  0  0  0  0  0  0  0
    3.0207   -4.5750   26.9464 N   0  0  0  0  0  0  0  0  0  0  0  0
    4.0600   -5.3252   26.5309 N   0  0  0  0  0  0  0  0  0  0  0  0
    4.7356   -5.8879   27.5806 C   0  0  0  0  0  0  0  0  0  0  0  0
    5.8748   -6.7932   27.4371 C   0  0  0  0  0  0  0  0  0  0  0  0
    6.7117   -7.0263   28.5379 C   0  0  0  0  0  0  0  0  0  0  0  0
    7.7885   -7.9119   28.4468 C   0  0  0  0  0  0  0  0  0  0  0  0
    8.0427   -8.5779   27.2509 C   0  0  0  0  0  0  0  0  0  0  0  0
    7.2268   -8.3503   26.1460 C   0  0  0  0  0  0  0  0  0  0  0  0
    6.1517   -7.4606   26.2344 C   0  0  0  0  0  0  0  0  0  0  0  0
    4.1841   -5.4556   28.7030 N   0  0  0  0  0  0  0  0  0  0  0  0
    1.5222   -5.6027   33.3802 C   0  0  0  0  0  0  0  0  0  0  0  0
  1  2  2  0
  2  3  2  0
  2  4  1  0
  4  5  1  1
  5  6  2  0
  6  7  1  0
  7  8  2  0
  8  9  1  0
  9 10  2  0
  4 11  1  0
 11 12  1  0
 12 13  1  0
 14 13  1  1
 14 15  1  0
 15 16  1  0
 16 17  2  0
 17 18  1  0
 18 19  2  0
 19 20  1  0
 20 21  1  0
 21 22  1  6
 22 23  1  0
 23 24  1  0
 24 25  1  0
 25 26  2  0
 26 27  1  0
 27 28  1  0
 28 29  1  0
 29 30  2  0
 30 31  1  0
 31 32  2  0
 32 33  1  0
 33 34  2  0
 28 35  2  0
 21 36  1  0
 14  2  1  0
 20 16  1  0
 35 25  1  0
 10  5  1  0
 36 14  1  0
 34 29  1  0
M  END
>  <SLURM_JOB_ID>  (98) 
350558

>  <original SMILES>  (98) 
O=S1(=O)[C@@H](c2ccccc2)CCC[C@]12Cc1nncn1[C@H](CNCc1n[nH]c(-c3ccccc3)n1)C2

>  <tags>  (98) 
Fragmenstein placed

>  <inchikey>  (98) 
ZTWXEBUXALNNFU-VRUMLPLGSA-N

>  <scratch_subdir>  (98) 
/opt/xchem-fragalysis-2/maxwin/BulkDock/SCRATCH/350558/C1033-P180

>  <name>  (98) 
ZTWXEBUXALNNFU-VRUMLPLGSA-N

>  <energy_score>  (98) 
-79.208676

>  <fragmenstein_error>  (98) 
None

>  <csv_name>  (98) 
D68EV3C_iter1_fstein_split1000_batch000.csv

>  <fragmenstein_mode>  (98) 
expansion

>  <HIPPO Compound ID>  (98) 
1033

>  <HIPPO Pose ID>  (98) 
7083

>  <ref_mols>  (98) 
B0691a,B1219a

>  <fragmenstein_runtime>  (98) 
7.665919

>  <fragmenstein_outcome>  (98) 
acceptable

>  <distance_score>  (98) 
0.991788

>  <score_inspiration>  (98) 
0.46758

>  <original ID>  (98) 
ZTWXEBUXALNNFU-VRUMLPLGSA-N

>  <ref_pdb>  (98) 
B1219a

>  <alias>  (98) 
None

$$$$
7096
     RDKit          3D

 27 31  0  0  0  0  0  0  0  0999 V2000
   -1.0876   -0.4161   31.6200 O   0  0  0  0  0  0  0  0  0  0  0  0
   -1.3292   -1.7582   31.1201 S   0  0  0  0  0  0  0  0  0  0  0  0
   -2.5532   -2.4964   31.3597 O   0  0  0  0  0  0  0  0  0  0  0  0
   -0.0337   -2.7506   31.7175 N   0  0  0  0  0  0  0  0  0  0  0  0
    0.3842   -3.6391   30.6714 N   0  0  0  0  0  0  0  0  0  0  0  0
    1.3512   -4.6352   31.2032 C   0  0  0  0  0  0  0  0  0  0  0  0
    0.7623   -5.5095   32.2940 C   0  0  0  0  0  0  0  0  0  0  0  0
    1.0857   -5.3667   33.5992 C   0  0  0  0  0  0  0  0  0  0  0  0
    0.4714   -6.2304   34.5984 C   0  0  0  0  0  0  0  0  0  0  0  0
   -0.4036   -7.1948   34.2567 C   0  0  0  0  0  0  0  0  0  0  0  0
   -0.7379   -7.3767   32.8904 C   0  0  0  0  0  0  0  0  0  0  0  0
   -1.5351   -8.2183   32.2682 N   0  0  0  0  0  0  0  0  0  0  0  0
   -1.4751   -7.9435   30.9252 N   0  0  0  0  0  0  0  0  0  0  0  0
   -0.6561   -6.9319   30.7675 C   0  0  0  0  0  0  0  0  0  0  0  0
   -0.1442   -6.5295   31.9663 N   0  0  0  0  0  0  0  0  0  0  0  0
    1.0319   -2.8699   29.5543 C   0  0  0  0  0  0  0  0  0  0  0  0
    0.1326   -1.8297   28.9611 C   0  0  0  0  0  0  0  0  0  0  0  0
    0.4189   -0.8632   28.1080 N   0  0  0  0  0  0  0  0  0  0  0  0
   -0.7869   -0.1896   27.9660 C   0  0  0  0  0  0  0  0  0  0  0  0
   -0.9240    1.1064   27.3197 C   0  0  0  0  0  0  0  0  0  0  0  0
   -2.1184    1.4551   26.6767 C   0  0  0  0  0  0  0  0  0  0  0  0
   -2.3096    2.7401   26.1700 C   0  0  0  0  0  0  0  0  0  0  0  0
   -1.3049    3.6931   26.3096 C   0  0  0  0  0  0  0  0  0  0  0  0
   -0.1055    3.3561   26.9376 C   0  0  0  0  0  0  0  0  0  0  0  0
    0.0885    2.0647   27.4360 C   0  0  0  0  0  0  0  0  0  0  0  0
   -1.7994   -0.7345   28.6528 N   0  0  0  0  0  0  0  0  0  0  0  0
   -1.1449   -1.6371   29.4099 N   0  0  0  0  0  0  0  0  0  0  0  0
  1  2  2  0
  2  3  2  0
  2  4  1  0
  4  5  1  0
  5  6  1  0
  6  7  1  0
  7  8  2  0
  8  9  1  0
  9 10  2  0
 10 11  1  0
 11 12  2  0
 12 13  1  0
 13 14  2  0
 14 15  1  0
  5 16  1  0
 16 17  1  0
 17 18  2  0
 18 19  1  0
 19 20  1  0
 20 21  2  0
 21 22  1  0
 22 23  2  0
 23 24  1  0
 24 25  2  0
 19 26  2  0
 26 27  1  0
 27  2  1  0
 15  7  1  0
 27 17  1  0
 15 11  1  0
 25 20  1  0
M  END
>  <SLURM_JOB_ID>  (99) 
350558

>  <original SMILES>  (99) 
O=S1(=O)NN(Cc2cccc3nncn23)Cc2nc(-c3ccccc3)nn21

>  <tags>  (99) 
Fragmenstein placed

>  <inchikey>  (99) 
MFPQVYLTINRIPD-UHFFFAOYSA-N

>  <scratch_subdir>  (99) 
/opt/xchem-fragalysis-2/maxwin/BulkDock/SCRATCH/350558/C1043-P44

>  <name>  (99) 
MFPQVYLTINRIPD-UHFFFAOYSA-N

>  <energy_score>  (99) 
-38.323967

>  <fragmenstein_error>  (99) 
None

>  <csv_name>  (99) 
D68EV3C_iter1_fstein_split1000_batch000.csv

>  <fragmenstein_mode>  (99) 
expansion

>  <HIPPO Compound ID>  (99) 
1043

>  <HIPPO Pose ID>  (99) 
7096

>  <ref_mols>  (99) 
7gp2-a,B0723a

>  <fragmenstein_runtime>  (99) 
2.359024

>  <fragmenstein_outcome>  (99) 
acceptable

>  <distance_score>  (99) 
0.801057

>  <score_inspiration>  (99) 
0.691674

>  <original ID>  (99) 
MFPQVYLTINRIPD-UHFFFAOYSA-N

>  <ref_pdb>  (99) 
7gp2-a

>  <alias>  (99) 
None

$$$$
7097
     RDKit          3D

 27 31  0  0  0  0  0  0  0  0999 V2000
   -1.1213   -0.4268   31.6931 O   0  0  0  0  0  0  0  0  0  0  0  0
   -1.3128   -1.7605   31.1523 S   0  0  0  0  0  0  0  0  0  0  0  0
   -2.5225   -2.5386   31.3328 O   0  0  0  0  0  0  0  0  0  0  0  0
   -0.0123   -2.7369   31.7610 N   0  0  0  0  0  0  0  0  0  0  0  0
    0.4534   -3.5857   30.7010 N   0  0  0  0  0  0  0  0  0  0  0  0
    1.4068   -4.5914   31.2343 C   0  0  0  0  0  0  0  0  0  0  0  0
    0.7700   -5.4967   32.2692 C   0  0  0  0  0  0  0  0  0  0  0  0
    1.0193   -5.3785   33.5933 C   0  0  0  0  0  0  0  0  0  0  0  0
    0.3361   -6.2475   34.5411 C   0  0  0  0  0  0  0  0  0  0  0  0
   -0.5350   -7.1890   34.1328 C   0  0  0  0  0  0  0  0  0  0  0  0
   -0.7802   -7.3542   32.7451 C   0  0  0  0  0  0  0  0  0  0  0  0
   -1.5286   -8.1937   32.0632 N   0  0  0  0  0  0  0  0  0  0  0  0
   -1.3685   -7.9165   30.7282 N   0  0  0  0  0  0  0  0  0  0  0  0
   -0.5382   -6.9055   30.6316 C   0  0  0  0  0  0  0  0  0  0  0  0
   -0.1199   -6.5052   31.8689 N   0  0  0  0  0  0  0  0  0  0  0  0
    1.1280   -2.7707   29.6361 C   0  0  0  0  0  0  0  0  0  0  0  0
    0.2267   -1.7296   29.0484 C   0  0  0  0  0  0  0  0  0  0  0  0
    0.5208   -0.7207   28.2491 N   0  0  0  0  0  0  0  0  0  0  0  0
   -0.6967   -0.0739   28.0818 C   0  0  0  0  0  0  0  0  0  0  0  0
   -0.8420    1.2370   27.4657 C   0  0  0  0  0  0  0  0  0  0  0  0
   -2.0250    1.5865   26.8021 C   0  0  0  0  0  0  0  0  0  0  0  0
   -2.2160    2.8724   26.2983 C   0  0  0  0  0  0  0  0  0  0  0  0
   -1.2192    3.8287   26.4602 C   0  0  0  0  0  0  0  0  0  0  0  0
   -0.0311    3.4940   27.1106 C   0  0  0  0  0  0  0  0  0  0  0  0
    0.1607    2.2012   27.6073 C   0  0  0  0  0  0  0  0  0  0  0  0
   -1.7203   -0.6798   28.6967 N   0  0  0  0  0  0  0  0  0  0  0  0
   -1.0725   -1.5872   29.4524 N   0  0  0  0  0  0  0  0  0  0  0  0
  1  2  2  0
  2  3  2  0
  2  4  1  0
  4  5  1  0
  5  6  1  0
  6  7  1  0
  7  8  2  0
  8  9  1  0
  9 10  2  0
 10 11  1  0
 11 12  2  0
 12 13  1  0
 13 14  2  0
 14 15  1  0
  5 16  1  0
 16 17  1  0
 17 18  2  0
 18 19  1  0
 19 20  1  0
 20 21  2  0
 21 22  1  0
 22 23  2  0
 23 24  1  0
 24 25  2  0
 19 26  2  0
 26 27  1  0
 27  2  1  0
 15  7  1  0
 27 17  1  0
 15 11  1  0
 25 20  1  0
M  END
>  <SLURM_JOB_ID>  (100) 
350558

>  <original SMILES>  (100) 
O=S1(=O)NN(Cc2cccc3nncn23)Cc2nc(-c3ccccc3)nn21

>  <tags>  (100) 
Fragmenstein placed

>  <inchikey>  (100) 
MFPQVYLTINRIPD-UHFFFAOYSA-N

>  <scratch_subdir>  (100) 
/opt/xchem-fragalysis-2/maxwin/BulkDock/SCRATCH/350558/C1043-P147

>  <name>  (100) 
MFPQVYLTINRIPD-UHFFFAOYSA-N

>  <energy_score>  (100) 
-38.29736

>  <fragmenstein_error>  (100) 
None

>  <csv_name>  (100) 
D68EV3C_iter1_fstein_split1000_batch000.csv

>  <fragmenstein_mode>  (100) 
expansion

>  <HIPPO Compound ID>  (100) 
1043

>  <HIPPO Pose ID>  (100) 
7097

>  <ref_mols>  (100) 
7gp2-a,B0723a

>  <fragmenstein_runtime>  (100) 
2.343149

>  <fragmenstein_outcome>  (100) 
acceptable

>  <distance_score>  (100) 
0.823145

>  <score_inspiration>  (100) 
0.679761

>  <original ID>  (100) 
MFPQVYLTINRIPD-UHFFFAOYSA-N

>  <ref_pdb>  (100) 
B0723a

>  <alias>  (100) 
None

$$$$
7148
     RDKit          3D

 25 28  0  0  0  0  0  0  0  0999 V2000
    2.1644   -6.3525   37.9697 C   0  0  0  0  0  0  0  0  0  0  0  0
    2.3539   -7.1091   36.7589 N   0  0  0  0  0  0  0  0  0  0  0  0
    3.3380   -8.0445   36.5123 C   0  0  0  0  0  0  0  0  0  0  0  0
    4.1897   -8.7289   37.4874 C   0  0  0  0  0  0  0  0  0  0  0  0
    5.4563   -9.1790   37.0882 C   0  0  0  0  0  0  0  0  0  0  0  0
    6.2644   -9.9051   37.9642 C   0  0  0  0  0  0  0  0  0  0  0  0
    5.8135  -10.1955   39.2491 C   0  0  0  0  0  0  0  0  0  0  0  0
    4.5521   -9.7737   39.6560 C   0  0  0  0  0  0  0  0  0  0  0  0
    3.7418   -9.0530   38.7764 C   0  0  0  0  0  0  0  0  0  0  0  0
    3.3761   -8.2631   35.2093 N   0  0  0  0  0  0  0  0  0  0  0  0
    2.3747   -7.5489   34.6240 N   0  0  0  0  0  0  0  0  0  0  0  0
    1.6988   -6.9148   35.5639 C   0  0  0  0  0  0  0  0  0  0  0  0
    0.5588   -6.1489   35.4002 N   0  0  0  0  0  0  0  0  0  0  0  0
   -0.5505   -6.5583   36.2740 C   0  0  0  0  0  0  0  0  0  0  0  0
   -1.8147   -6.2904   35.6975 O   0  0  0  0  0  0  0  0  0  0  0  0
    0.3361   -5.7317   34.0685 C   0  0  0  0  0  0  0  0  0  0  0  0
    0.9565   -4.6403   33.5598 C   0  0  0  0  0  0  0  0  0  0  0  0
    0.9320   -4.3708   32.1321 C   0  0  0  0  0  0  0  0  0  0  0  0
    0.3940   -5.2458   31.2658 C   0  0  0  0  0  0  0  0  0  0  0  0
   -0.2283   -6.4142   31.7728 C   0  0  0  0  0  0  0  0  0  0  0  0
   -0.6727   -7.6074   31.2704 C   0  0  0  0  0  0  0  0  0  0  0  0
   -0.2847   -8.2913   29.5960 Br  0  0  0  0  0  0  0  0  0  0  0  0
   -1.3130   -8.3518   32.1981 N   0  0  0  0  0  0  0  0  0  0  0  0
   -1.0522   -7.7347   33.3255 C   0  0  0  0  0  0  0  0  0  0  0  0
   -0.3253   -6.5807   33.1487 N   0  0  0  0  0  0  0  0  0  0  0  0
  1  2  1  0
  2  3  1  0
  3  4  1  0
  4  5  2  0
  5  6  1  0
  6  7  2  0
  7  8  1  0
  8  9  2  0
  3 10  2  0
 10 11  1  0
 11 12  2  0
 12 13  1  0
 13 14  1  0
 14 15  1  0
 13 16  1  0
 16 17  2  0
 17 18  1  0
 18 19  2  0
 19 20  1  0
 20 21  2  0
 21 22  1  0
 21 23  1  0
 23 24  2  0
 24 25  1  0
 12  2  1  0
 25 16  1  0
  9  4  1  0
 25 20  1  0
M  END
>  <SLURM_JOB_ID>  (101) 
350558

>  <original SMILES>  (101) 
Cn1c(-c2ccccc2)nnc1N(CO)c1cccc2c(Br)ncn12

>  <tags>  (101) 
Fragmenstein placed

>  <inchikey>  (101) 
FVBSWFJZOVJLQL-UHFFFAOYSA-N

>  <scratch_subdir>  (101) 
/opt/xchem-fragalysis-2/maxwin/BulkDock/SCRATCH/350558/C1083-P128

>  <name>  (101) 
FVBSWFJZOVJLQL-UHFFFAOYSA-N

>  <energy_score>  (101) 
-20.033141

>  <fragmenstein_error>  (101) 
None

>  <csv_name>  (101) 
D68EV3C_iter1_fstein_split1000_batch000.csv

>  <fragmenstein_mode>  (101) 
expansion

>  <HIPPO Compound ID>  (101) 
1083

>  <HIPPO Pose ID>  (101) 
7148

>  <ref_mols>  (101) 
B0436a,B0738a

>  <fragmenstein_runtime>  (101) 
6.170236

>  <fragmenstein_outcome>  (101) 
acceptable

>  <distance_score>  (101) 
0.725391

>  <score_inspiration>  (101) 
0.643327

>  <original ID>  (101) 
FVBSWFJZOVJLQL-UHFFFAOYSA-N

>  <ref_pdb>  (101) 
B0436a

>  <alias>  (101) 
None

$$$$
7149
     RDKit          3D

 25 28  0  0  0  0  0  0  0  0999 V2000
    2.2532   -6.2129   37.9477 C   0  0  0  0  0  0  0  0  0  0  0  0
    2.3190   -7.0180   36.7544 N   0  0  0  0  0  0  0  0  0  0  0  0
    3.2264   -8.0294   36.5053 C   0  0  0  0  0  0  0  0  0  0  0  0
    4.0861   -8.7135   37.4709 C   0  0  0  0  0  0  0  0  0  0  0  0
    5.3539   -9.1556   37.0674 C   0  0  0  0  0  0  0  0  0  0  0  0
    6.1666   -9.8786   37.9417 C   0  0  0  0  0  0  0  0  0  0  0  0
    5.7173  -10.1734   39.2265 C   0  0  0  0  0  0  0  0  0  0  0  0
    4.4525   -9.7615   39.6344 C   0  0  0  0  0  0  0  0  0  0  0  0
    3.6389   -9.0413   38.7583 C   0  0  0  0  0  0  0  0  0  0  0  0
    3.1879   -8.3086   35.2151 N   0  0  0  0  0  0  0  0  0  0  0  0
    2.2160   -7.5497   34.6425 N   0  0  0  0  0  0  0  0  0  0  0  0
    1.6419   -6.8074   35.5728 C   0  0  0  0  0  0  0  0  0  0  0  0
    0.6244   -5.8979   35.3730 N   0  0  0  0  0  0  0  0  0  0  0  0
   -0.4712   -5.8609   36.3413 C   0  0  0  0  0  0  0  0  0  0  0  0
   -1.7235   -6.1009   35.7202 O   0  0  0  0  0  0  0  0  0  0  0  0
    0.3989   -5.5356   34.0331 C   0  0  0  0  0  0  0  0  0  0  0  0
    0.9817   -4.4537   33.4691 C   0  0  0  0  0  0  0  0  0  0  0  0
    0.9344   -4.2611   32.0288 C   0  0  0  0  0  0  0  0  0  0  0  0
    0.4019   -5.1888   31.2143 C   0  0  0  0  0  0  0  0  0  0  0  0
   -0.1910   -6.3431   31.7864 C   0  0  0  0  0  0  0  0  0  0  0  0
   -0.6428   -7.5590   31.3495 C   0  0  0  0  0  0  0  0  0  0  0  0
   -0.3338   -8.2841   29.6748 Br  0  0  0  0  0  0  0  0  0  0  0  0
   -1.2372   -8.2749   32.3324 N   0  0  0  0  0  0  0  0  0  0  0  0
   -0.9340   -7.6150   33.4248 C   0  0  0  0  0  0  0  0  0  0  0  0
   -0.2482   -6.4483   33.1675 N   0  0  0  0  0  0  0  0  0  0  0  0
  1  2  1  0
  2  3  1  0
  3  4  1  0
  4  5  2  0
  5  6  1  0
  6  7  2  0
  7  8  1  0
  8  9  2  0
  3 10  2  0
 10 11  1  0
 11 12  2  0
 12 13  1  0
 13 14  1  0
 14 15  1  0
 13 16  1  0
 16 17  2  0
 17 18  1  0
 18 19  2  0
 19 20  1  0
 20 21  2  0
 21 22  1  0
 21 23  1  0
 23 24  2  0
 24 25  1  0
 12  2  1  0
 25 16  1  0
  9  4  1  0
 25 20  1  0
M  END
>  <SLURM_JOB_ID>  (102) 
350558

>  <original SMILES>  (102) 
Cn1c(-c2ccccc2)nnc1N(CO)c1cccc2c(Br)ncn12

>  <tags>  (102) 
Fragmenstein placed

>  <inchikey>  (102) 
FVBSWFJZOVJLQL-UHFFFAOYSA-N

>  <scratch_subdir>  (102) 
/opt/xchem-fragalysis-2/maxwin/BulkDock/SCRATCH/350558/C1083-P148

>  <name>  (102) 
FVBSWFJZOVJLQL-UHFFFAOYSA-N

>  <energy_score>  (102) 
-20.260294

>  <fragmenstein_error>  (102) 
None

>  <csv_name>  (102) 
D68EV3C_iter1_fstein_split1000_batch000.csv

>  <fragmenstein_mode>  (102) 
expansion

>  <HIPPO Compound ID>  (102) 
1083

>  <HIPPO Pose ID>  (102) 
7149

>  <ref_mols>  (102) 
B0436a,B0738a

>  <fragmenstein_runtime>  (102) 
5.974751

>  <fragmenstein_outcome>  (102) 
acceptable

>  <distance_score>  (102) 
0.73835

>  <score_inspiration>  (102) 
0.63251

>  <original ID>  (102) 
FVBSWFJZOVJLQL-UHFFFAOYSA-N

>  <ref_pdb>  (102) 
B0738a

>  <alias>  (102) 
None

$$$$
7171
     RDKit          3D

 31 35  0  0  0  0  0  0  0  0999 V2000
   -2.0364   -3.1914   31.3356 O   0  0  0  0  0  0  0  0  0  0  0  0
   -1.2624   -1.9963   31.5926 S   0  0  0  0  0  0  0  0  0  0  0  0
   -1.6725   -1.0228   32.5793 O   0  0  0  0  0  0  0  0  0  0  0  0
    0.3157   -2.4307   31.9700 N   0  0  0  0  0  0  0  0  0  0  0  0
    1.0147   -3.3898   31.1114 C   0  0  0  0  0  0  0  0  0  0  0  0
    0.6963   -4.7541   31.6349 C   0  0  0  0  0  0  0  0  0  0  0  0
    0.9632   -5.0201   33.0491 C   0  0  0  0  0  0  0  0  0  0  0  0
    0.3764   -6.0622   33.6768 C   0  0  0  0  0  0  0  0  0  0  0  0
    0.6488   -6.4144   34.9971 N   0  0  0  0  0  0  0  0  0  0  0  0
    1.8825   -6.8169   35.3807 C   0  0  0  0  0  0  0  0  0  0  0  0
    3.0128   -6.6919   34.6833 N   0  0  0  0  0  0  0  0  0  0  0  0
    3.9005   -7.2917   35.4805 N   0  0  0  0  0  0  0  0  0  0  0  0
    3.2994   -7.8676   36.5596 C   0  0  0  0  0  0  0  0  0  0  0  0
    4.0034   -8.6885   37.5398 C   0  0  0  0  0  0  0  0  0  0  0  0
    5.2301   -9.3082   37.2449 C   0  0  0  0  0  0  0  0  0  0  0  0
    5.8600  -10.1200   38.1905 C   0  0  0  0  0  0  0  0  0  0  0  0
    5.2717  -10.3227   39.4360 C   0  0  0  0  0  0  0  0  0  0  0  0
    4.0518   -9.7244   39.7375 C   0  0  0  0  0  0  0  0  0  0  0  0
    3.4229   -8.9121   38.7934 C   0  0  0  0  0  0  0  0  0  0  0  0
    2.0151   -7.5532   36.5196 N   0  0  0  0  0  0  0  0  0  0  0  0
   -0.4431   -6.8794   32.8815 N   0  0  0  0  0  0  0  0  0  0  0  0
   -1.2703   -7.9166   33.1935 C   0  0  0  0  0  0  0  0  0  0  0  0
   -1.7384   -8.4766   32.0999 N   0  0  0  0  0  0  0  0  0  0  0  0
   -1.2567   -7.7754   31.0272 N   0  0  0  0  0  0  0  0  0  0  0  0
   -0.5289   -6.7872   31.5000 C   0  0  0  0  0  0  0  0  0  0  0  0
    0.0650   -5.6673   30.8732 C   0  0  0  0  0  0  0  0  0  0  0  0
   -1.1750   -1.1343   30.0705 C   0  0  0  0  0  0  0  0  0  0  0  0
   -1.5854   -1.3706   28.7767 C   0  0  0  0  0  0  0  0  0  0  0  0
   -1.2052   -0.2886   27.9348 C   0  0  0  0  0  0  0  0  0  0  0  0
   -0.5026    0.6903   28.4989 N   0  0  0  0  0  0  0  0  0  0  0  0
   -0.3215    0.3388   30.1048 S   0  0  0  0  0  0  0  0  0  0  0  0
  1  2  2  0
  2  3  2  0
  2  4  1  0
  4  5  1  0
  5  6  1  0
  6  7  1  0
  7  8  2  0
  8  9  1  0
  9 10  1  0
 10 11  2  0
 11 12  1  0
 12 13  1  0
 13 14  1  0
 14 15  2  0
 15 16  1  0
 16 17  2  0
 17 18  1  0
 18 19  2  0
 13 20  2  0
  8 21  1  0
 21 22  1  0
 22 23  2  0
 23 24  1  0
 24 25  2  0
 25 26  1  0
  2 27  1  0
 27 28  2  0
 28 29  1  0
 29 30  2  0
 30 31  1  0
 26  6  2  0
 31 27  1  0
 20 10  1  0
 25 21  1  0
 19 14  1  0
M  END
>  <SLURM_JOB_ID>  (103) 
350558

>  <original SMILES>  (103) 
O=S(=O)(NCc1cc(Nc2n[nH]c(-c3ccccc3)n2)n2cnnc2c1)c1ccns1

>  <tags>  (103) 
Fragmenstein placed

>  <inchikey>  (103) 
RAWKTIYUUMGONY-UHFFFAOYSA-N

>  <scratch_subdir>  (103) 
/opt/xchem-fragalysis-2/maxwin/BulkDock/SCRATCH/350558/C1097-P148

>  <name>  (103) 
RAWKTIYUUMGONY-UHFFFAOYSA-N

>  <energy_score>  (103) 
-74.398499

>  <fragmenstein_error>  (103) 
None

>  <csv_name>  (103) 
D68EV3C_iter1_fstein_split1000_batch000.csv

>  <fragmenstein_mode>  (103) 
expansion

>  <HIPPO Compound ID>  (103) 
1097

>  <HIPPO Pose ID>  (103) 
7171

>  <ref_mols>  (103) 
B0738a,B1457a

>  <fragmenstein_runtime>  (103) 
4.617823

>  <fragmenstein_outcome>  (103) 
acceptable

>  <distance_score>  (103) 
0.637899

>  <score_inspiration>  (103) 
0.626258

>  <original ID>  (103) 
RAWKTIYUUMGONY-UHFFFAOYSA-N

>  <ref_pdb>  (103) 
B0738a

>  <alias>  (103) 
None

$$$$
7172
     RDKit          3D

 31 35  0  0  0  0  0  0  0  0999 V2000
   -2.0443   -3.2667   31.4466 O   0  0  0  0  0  0  0  0  0  0  0  0
   -1.3163   -2.0460   31.7190 S   0  0  0  0  0  0  0  0  0  0  0  0
   -1.7890   -1.0939   32.6981 O   0  0  0  0  0  0  0  0  0  0  0  0
    0.2666   -2.4207   32.1260 N   0  0  0  0  0  0  0  0  0  0  0  0
    1.0321   -3.3308   31.2673 C   0  0  0  0  0  0  0  0  0  0  0  0
    0.7209   -4.7268   31.6914 C   0  0  0  0  0  0  0  0  0  0  0  0
    1.0146   -5.0933   33.0748 C   0  0  0  0  0  0  0  0  0  0  0  0
    0.4190   -6.1639   33.6434 C   0  0  0  0  0  0  0  0  0  0  0  0
    0.6908   -6.5870   34.9435 N   0  0  0  0  0  0  0  0  0  0  0  0
    1.9421   -6.9023   35.3515 C   0  0  0  0  0  0  0  0  0  0  0  0
    3.0757   -6.7210   34.6678 N   0  0  0  0  0  0  0  0  0  0  0  0
    3.9840   -7.2599   35.4851 N   0  0  0  0  0  0  0  0  0  0  0  0
    3.4012   -7.8473   36.5669 C   0  0  0  0  0  0  0  0  0  0  0  0
    4.1247   -8.6322   37.5601 C   0  0  0  0  0  0  0  0  0  0  0  0
    5.3187   -9.3013   37.2442 C   0  0  0  0  0  0  0  0  0  0  0  0
    5.9593  -10.0923   38.1997 C   0  0  0  0  0  0  0  0  0  0  0  0
    5.4159  -10.2215   39.4757 C   0  0  0  0  0  0  0  0  0  0  0  0
    4.2300   -9.5683   39.7996 C   0  0  0  0  0  0  0  0  0  0  0  0
    3.5864   -8.7819   38.8438 C   0  0  0  0  0  0  0  0  0  0  0  0
    2.1065   -7.5935   36.5136 N   0  0  0  0  0  0  0  0  0  0  0  0
   -0.4182   -6.9183   32.8036 N   0  0  0  0  0  0  0  0  0  0  0  0
   -1.2571   -7.9595   33.0523 C   0  0  0  0  0  0  0  0  0  0  0  0
   -1.7216   -8.4556   31.9269 N   0  0  0  0  0  0  0  0  0  0  0  0
   -1.2471   -7.6885   30.8985 N   0  0  0  0  0  0  0  0  0  0  0  0
   -0.5170   -6.7351   31.4313 C   0  0  0  0  0  0  0  0  0  0  0  0
    0.0704   -5.5773   30.8758 C   0  0  0  0  0  0  0  0  0  0  0  0
   -1.2178   -1.2006   30.1983 C   0  0  0  0  0  0  0  0  0  0  0  0
   -1.5130   -1.5100   28.8900 C   0  0  0  0  0  0  0  0  0  0  0  0
   -1.1920   -0.4162   28.0487 C   0  0  0  0  0  0  0  0  0  0  0  0
   -0.6480    0.6476   28.6313 N   0  0  0  0  0  0  0  0  0  0  0  0
   -0.4879    0.3325   30.2457 S   0  0  0  0  0  0  0  0  0  0  0  0
  1  2  2  0
  2  3  2  0
  2  4  1  0
  4  5  1  0
  5  6  1  0
  6  7  1  0
  7  8  2  0
  8  9  1  0
  9 10  1  0
 10 11  2  0
 11 12  1  0
 12 13  1  0
 13 14  1  0
 14 15  2  0
 15 16  1  0
 16 17  2  0
 17 18  1  0
 18 19  2  0
 13 20  2  0
  8 21  1  0
 21 22  1  0
 22 23  2  0
 23 24  1  0
 24 25  2  0
 25 26  1  0
  2 27  1  0
 27 28  2  0
 28 29  1  0
 29 30  2  0
 30 31  1  0
 26  6  2  0
 31 27  1  0
 20 10  1  0
 25 21  1  0
 19 14  1  0
M  END
>  <SLURM_JOB_ID>  (104) 
350558

>  <original SMILES>  (104) 
O=S(=O)(NCc1cc(Nc2n[nH]c(-c3ccccc3)n2)n2cnnc2c1)c1ccns1

>  <tags>  (104) 
Fragmenstein placed

>  <inchikey>  (104) 
RAWKTIYUUMGONY-UHFFFAOYSA-N

>  <scratch_subdir>  (104) 
/opt/xchem-fragalysis-2/maxwin/BulkDock/SCRATCH/350558/C1097-P196

>  <name>  (104) 
RAWKTIYUUMGONY-UHFFFAOYSA-N

>  <energy_score>  (104) 
-76.055409

>  <fragmenstein_error>  (104) 
None

>  <csv_name>  (104) 
D68EV3C_iter1_fstein_split1000_batch000.csv

>  <fragmenstein_mode>  (104) 
expansion

>  <HIPPO Compound ID>  (104) 
1097

>  <HIPPO Pose ID>  (104) 
7172

>  <ref_mols>  (104) 
B0738a,B1457a

>  <fragmenstein_runtime>  (104) 
4.206486

>  <fragmenstein_outcome>  (104) 
acceptable

>  <distance_score>  (104) 
0.666414

>  <score_inspiration>  (104) 
0.621774

>  <original ID>  (104) 
RAWKTIYUUMGONY-UHFFFAOYSA-N

>  <ref_pdb>  (104) 
B1457a

>  <alias>  (104) 
None

$$$$
7173
     RDKit          3D

 33 37  0  0  0  0  0  0  0  0999 V2000
   -1.7118   -3.2237   31.4241 O   0  0  0  0  0  0  0  0  0  0  0  0
   -0.8984   -2.0317   31.5454 S   0  0  0  0  0  0  0  0  0  0  0  0
   -1.0466   -1.1317   32.6676 O   0  0  0  0  0  0  0  0  0  0  0  0
    0.7189   -2.4396   31.5079 N   0  0  0  0  0  0  0  0  0  0  0  0
    1.2053   -3.5768   30.7494 C   0  0  0  0  0  0  0  0  0  0  0  0
    0.8365   -4.8286   31.4931 C   0  0  0  0  0  0  0  0  0  0  0  0
    1.1307   -4.9300   32.9314 C   0  0  0  0  0  0  0  0  0  0  0  0
    0.5740   -5.9123   33.6744 C   0  0  0  0  0  0  0  0  0  0  0  0
    0.8609   -6.1447   35.0225 N   0  0  0  0  0  0  0  0  0  0  0  0
    1.8608   -6.9984   35.3669 C   0  0  0  0  0  0  0  0  0  0  0  0
    2.4992   -7.8291   34.5375 N   0  0  0  0  0  0  0  0  0  0  0  0
    3.4634   -8.3171   35.3225 N   0  0  0  0  0  0  0  0  0  0  0  0
    3.3174   -7.9114   36.6127 C   0  0  0  0  0  0  0  0  0  0  0  0
    4.0813   -8.5133   37.6996 C   0  0  0  0  0  0  0  0  0  0  0  0
    5.2993   -9.1780   37.4646 C   0  0  0  0  0  0  0  0  0  0  0  0
    5.9506   -9.8530   38.4971 C   0  0  0  0  0  0  0  0  0  0  0  0
    5.3992   -9.8610   39.7749 C   0  0  0  0  0  0  0  0  0  0  0  0
    4.2042   -9.1911   40.0261 C   0  0  0  0  0  0  0  0  0  0  0  0
    3.5501   -8.5194   38.9925 C   0  0  0  0  0  0  0  0  0  0  0  0
    2.3365   -7.0238   36.6476 N   0  0  0  0  0  0  0  0  0  0  0  0
   -0.2766   -6.8067   32.9962 N   0  0  0  0  0  0  0  0  0  0  0  0
   -1.0932   -7.8003   33.4531 C   0  0  0  0  0  0  0  0  0  0  0  0
   -1.6913   -8.4010   32.4465 N   0  0  0  0  0  0  0  0  0  0  0  0
   -1.2820   -7.7963   31.2864 N   0  0  0  0  0  0  0  0  0  0  0  0
   -0.4705   -6.8183   31.6247 C   0  0  0  0  0  0  0  0  0  0  0  0
    0.1298   -5.7902   30.8669 C   0  0  0  0  0  0  0  0  0  0  0  0
   -1.0394   -1.0805   30.0699 C   0  0  0  0  0  0  0  0  0  0  0  0
   -1.5581   -1.6824   28.9319 C   0  0  0  0  0  0  0  0  0  0  0  0
   -1.7523   -0.9162   27.7928 C   0  0  0  0  0  0  0  0  0  0  0  0
   -1.4135    0.4316   27.7872 C   0  0  0  0  0  0  0  0  0  0  0  0
   -1.6536    1.1963   26.6859 O   0  0  0  0  0  0  0  0  0  0  0  0
   -0.8600    1.0287   28.9097 C   0  0  0  0  0  0  0  0  0  0  0  0
   -0.6774    0.2700   30.0671 C   0  0  0  0  0  0  0  0  0  0  0  0
  1  2  2  0
  2  3  2  0
  2  4  1  0
  4  5  1  0
  5  6  1  0
  6  7  1  0
  7  8  2  0
  8  9  1  0
  9 10  1  0
 10 11  2  0
 11 12  1  0
 12 13  1  0
 13 14  1  0
 14 15  2  0
 15 16  1  0
 16 17  2  0
 17 18  1  0
 18 19  2  0
 13 20  2  0
  8 21  1  0
 21 22  1  0
 22 23  2  0
 23 24  1  0
 24 25  2  0
 25 26  1  0
  2 27  1  0
 27 28  2  0
 28 29  1  0
 29 30  2  0
 30 31  1  0
 30 32  1  0
 32 33  2  0
 26  6  2  0
 33 27  1  0
 20 10  1  0
 25 21  1  0
 19 14  1  0
M  END
>  <SLURM_JOB_ID>  (105) 
350558

>  <original SMILES>  (105) 
O=S(=O)(NCc1cc(Nc2n[nH]c(-c3ccccc3)n2)n2cnnc2c1)c1ccc(O)cc1

>  <tags>  (105) 
Fragmenstein placed

>  <inchikey>  (105) 
VUAVTLDFIHWBTO-UHFFFAOYSA-N

>  <scratch_subdir>  (105) 
/opt/xchem-fragalysis-2/maxwin/BulkDock/SCRATCH/350558/C1098-P148

>  <name>  (105) 
VUAVTLDFIHWBTO-UHFFFAOYSA-N

>  <energy_score>  (105) 
-48.513188

>  <fragmenstein_error>  (105) 
None

>  <csv_name>  (105) 
D68EV3C_iter1_fstein_split1000_batch000.csv

>  <fragmenstein_mode>  (105) 
expansion

>  <HIPPO Compound ID>  (105) 
1098

>  <HIPPO Pose ID>  (105) 
7173

>  <ref_mols>  (105) 
B0738a,B1460a

>  <fragmenstein_runtime>  (105) 
8.359088

>  <fragmenstein_outcome>  (105) 
acceptable

>  <distance_score>  (105) 
0.628708

>  <score_inspiration>  (105) 
0.670899

>  <original ID>  (105) 
VUAVTLDFIHWBTO-UHFFFAOYSA-N

>  <ref_pdb>  (105) 
B0738a

>  <alias>  (105) 
None

$$$$
7174
     RDKit          3D

 33 37  0  0  0  0  0  0  0  0999 V2000
   -1.7829   -3.2104   31.3563 O   0  0  0  0  0  0  0  0  0  0  0  0
   -0.9991   -2.0008   31.4953 S   0  0  0  0  0  0  0  0  0  0  0  0
   -1.1783   -1.1140   32.6237 O   0  0  0  0  0  0  0  0  0  0  0  0
    0.6300   -2.3623   31.4688 N   0  0  0  0  0  0  0  0  0  0  0  0
    1.1577   -3.4713   30.6979 C   0  0  0  0  0  0  0  0  0  0  0  0
    0.8162   -4.7437   31.4155 C   0  0  0  0  0  0  0  0  0  0  0  0
    1.1238   -4.8740   32.8490 C   0  0  0  0  0  0  0  0  0  0  0  0
    0.5804   -5.8778   33.5726 C   0  0  0  0  0  0  0  0  0  0  0  0
    0.8623   -6.1335   34.9171 N   0  0  0  0  0  0  0  0  0  0  0  0
    1.9057   -6.9296   35.2671 C   0  0  0  0  0  0  0  0  0  0  0  0
    2.6334   -7.6851   34.4376 N   0  0  0  0  0  0  0  0  0  0  0  0
    3.5896   -8.1433   35.2510 N   0  0  0  0  0  0  0  0  0  0  0  0
    3.3522   -7.8126   36.5496 C   0  0  0  0  0  0  0  0  0  0  0  0
    4.0782   -8.4349   37.6535 C   0  0  0  0  0  0  0  0  0  0  0  0
    5.3147   -9.0779   37.4568 C   0  0  0  0  0  0  0  0  0  0  0  0
    5.9256   -9.7789   38.4975 C   0  0  0  0  0  0  0  0  0  0  0  0
    5.3146   -9.8363   39.7465 C   0  0  0  0  0  0  0  0  0  0  0  0
    4.0993   -9.1905   39.9607 C   0  0  0  0  0  0  0  0  0  0  0  0
    3.4863   -8.4927   38.9190 C   0  0  0  0  0  0  0  0  0  0  0  0
    2.3210   -6.9841   36.5689 N   0  0  0  0  0  0  0  0  0  0  0  0
   -0.2584   -6.7675   32.8752 N   0  0  0  0  0  0  0  0  0  0  0  0
   -1.0582   -7.7798   33.3122 C   0  0  0  0  0  0  0  0  0  0  0  0
   -1.6272   -8.3885   32.2931 N   0  0  0  0  0  0  0  0  0  0  0  0
   -1.2391   -7.7491   31.1454 N   0  0  0  0  0  0  0  0  0  0  0  0
   -0.4578   -6.7547   31.5049 C   0  0  0  0  0  0  0  0  0  0  0  0
    0.1134   -5.6961   30.7714 C   0  0  0  0  0  0  0  0  0  0  0  0
   -1.1603   -1.0389   30.0267 C   0  0  0  0  0  0  0  0  0  0  0  0
   -1.6797   -1.6346   28.8832 C   0  0  0  0  0  0  0  0  0  0  0  0
   -1.8868   -0.8583   27.7513 C   0  0  0  0  0  0  0  0  0  0  0  0
   -1.5673    0.4944   27.7643 C   0  0  0  0  0  0  0  0  0  0  0  0
   -1.8288    1.2737   26.6784 O   0  0  0  0  0  0  0  0  0  0  0  0
   -1.0149    1.0853   28.8914 C   0  0  0  0  0  0  0  0  0  0  0  0
   -0.8172    0.3169   30.0390 C   0  0  0  0  0  0  0  0  0  0  0  0
  1  2  2  0
  2  3  2  0
  2  4  1  0
  4  5  1  0
  5  6  1  0
  6  7  1  0
  7  8  2  0
  8  9  1  0
  9 10  1  0
 10 11  2  0
 11 12  1  0
 12 13  1  0
 13 14  1  0
 14 15  2  0
 15 16  1  0
 16 17  2  0
 17 18  1  0
 18 19  2  0
 13 20  2  0
  8 21  1  0
 21 22  1  0
 22 23  2  0
 23 24  1  0
 24 25  2  0
 25 26  1  0
  2 27  1  0
 27 28  2  0
 28 29  1  0
 29 30  2  0
 30 31  1  0
 30 32  1  0
 32 33  2  0
 26  6  2  0
 33 27  1  0
 20 10  1  0
 25 21  1  0
 19 14  1  0
M  END
>  <SLURM_JOB_ID>  (106) 
350558

>  <original SMILES>  (106) 
O=S(=O)(NCc1cc(Nc2n[nH]c(-c3ccccc3)n2)n2cnnc2c1)c1ccc(O)cc1

>  <tags>  (106) 
Fragmenstein placed

>  <inchikey>  (106) 
VUAVTLDFIHWBTO-UHFFFAOYSA-N

>  <scratch_subdir>  (106) 
/opt/xchem-fragalysis-2/maxwin/BulkDock/SCRATCH/350558/C1098-P198

>  <name>  (106) 
VUAVTLDFIHWBTO-UHFFFAOYSA-N

>  <energy_score>  (106) 
-48.063961

>  <fragmenstein_error>  (106) 
None

>  <csv_name>  (106) 
D68EV3C_iter1_fstein_split1000_batch000.csv

>  <fragmenstein_mode>  (106) 
expansion

>  <HIPPO Compound ID>  (106) 
1098

>  <HIPPO Pose ID>  (106) 
7174

>  <ref_mols>  (106) 
B0738a,B1460a

>  <fragmenstein_runtime>  (106) 
7.794966

>  <fragmenstein_outcome>  (106) 
acceptable

>  <distance_score>  (106) 
0.632784

>  <score_inspiration>  (106) 
0.674548

>  <original ID>  (106) 
VUAVTLDFIHWBTO-UHFFFAOYSA-N

>  <ref_pdb>  (106) 
B1460a

>  <alias>  (106) 
None

$$$$
7177
     RDKit          3D

 32 36  0  0  0  0  0  0  0  0999 V2000
   -0.8255   -0.5574   27.6835 C   0  0  0  0  0  0  0  0  0  0  0  0
   -0.9016   -0.5052   29.1123 N   0  0  0  0  0  0  0  0  0  0  0  0
   -0.6267    0.5614   29.9096 C   0  0  0  0  0  0  0  0  0  0  0  0
   -0.7225    0.0984   31.1990 C   0  0  0  0  0  0  0  0  0  0  0  0
   -1.0561   -1.2677   31.0649 C   0  0  0  0  0  0  0  0  0  0  0  0
   -0.9686   -2.4039   32.3820 S   0  0  0  0  0  0  0  0  0  0  0  0
   -1.7492   -3.5580   31.9861 O   0  0  0  0  0  0  0  0  0  0  0  0
   -1.2655   -1.6155   33.5567 O   0  0  0  0  0  0  0  0  0  0  0  0
    0.6891   -2.7657   32.4484 N   0  0  0  0  0  0  0  0  0  0  0  0
    1.2163   -3.6222   31.3719 C   0  0  0  0  0  0  0  0  0  0  0  0
    0.8748   -5.0214   31.7427 C   0  0  0  0  0  0  0  0  0  0  0  0
    1.1424   -5.3884   33.1265 C   0  0  0  0  0  0  0  0  0  0  0  0
    0.4355   -6.3653   33.7265 C   0  0  0  0  0  0  0  0  0  0  0  0
    0.6745   -6.7669   35.0377 N   0  0  0  0  0  0  0  0  0  0  0  0
    1.9148   -7.0906   35.4694 C   0  0  0  0  0  0  0  0  0  0  0  0
    3.0479   -6.9645   34.7748 N   0  0  0  0  0  0  0  0  0  0  0  0
    3.9473   -7.4925   35.6025 N   0  0  0  0  0  0  0  0  0  0  0  0
    3.3554   -8.0332   36.7031 C   0  0  0  0  0  0  0  0  0  0  0  0
    4.0713   -8.8163   37.7019 C   0  0  0  0  0  0  0  0  0  0  0  0
    5.3034   -9.4291   37.4154 C   0  0  0  0  0  0  0  0  0  0  0  0
    5.9441  -10.2124   38.3758 C   0  0  0  0  0  0  0  0  0  0  0  0
    5.3608  -10.3931   39.6269 C   0  0  0  0  0  0  0  0  0  0  0  0
    4.1350   -9.8021   39.9196 C   0  0  0  0  0  0  0  0  0  0  0  0
    3.4944   -9.0185   38.9600 C   0  0  0  0  0  0  0  0  0  0  0  0
    2.0645   -7.7501   36.6497 N   0  0  0  0  0  0  0  0  0  0  0  0
   -0.4685   -7.0527   32.9029 N   0  0  0  0  0  0  0  0  0  0  0  0
   -1.4144   -7.9918   33.1749 C   0  0  0  0  0  0  0  0  0  0  0  0
   -1.8866   -8.5022   32.0595 N   0  0  0  0  0  0  0  0  0  0  0  0
   -1.3144   -7.8346   31.0112 N   0  0  0  0  0  0  0  0  0  0  0  0
   -0.5228   -6.9171   31.5201 C   0  0  0  0  0  0  0  0  0  0  0  0
    0.1592   -5.8248   30.9355 C   0  0  0  0  0  0  0  0  0  0  0  0
   -1.1317   -1.6421   29.7815 N   0  0  0  0  0  0  0  0  0  0  0  0
  1  2  1  0
  2  3  1  0
  3  4  2  0
  4  5  1  0
  5  6  1  0
  6  7  2  0
  6  8  2  0
  6  9  1  0
  9 10  1  0
 10 11  1  0
 11 12  1  0
 12 13  2  0
 13 14  1  0
 14 15  1  0
 15 16  2  0
 16 17  1  0
 17 18  1  0
 18 19  1  0
 19 20  2  0
 20 21  1  0
 21 22  2  0
 22 23  1  0
 23 24  2  0
 18 25  2  0
 13 26  1  0
 26 27  1  0
 27 28  2  0
 28 29  1  0
 29 30  2  0
 30 31  1  0
  5 32  2  0
 32  2  1  0
 31 11  2  0
 25 15  1  0
 30 26  1  0
 24 19  1  0
M  END
>  <SLURM_JOB_ID>  (107) 
350558

>  <original SMILES>  (107) 
Cn1ccc(S(=O)(=O)NCc2cc(Nc3n[nH]c(-c4ccccc4)n3)n3cnnc3c2)n1

>  <tags>  (107) 
Fragmenstein placed

>  <inchikey>  (107) 
JDSFMHCDLBLTOW-UHFFFAOYSA-N

>  <scratch_subdir>  (107) 
/opt/xchem-fragalysis-2/maxwin/BulkDock/SCRATCH/350558/C1100-P148

>  <name>  (107) 
JDSFMHCDLBLTOW-UHFFFAOYSA-N

>  <energy_score>  (107) 
-38.199331

>  <fragmenstein_error>  (107) 
None

>  <csv_name>  (107) 
D68EV3C_iter1_fstein_split1000_batch000.csv

>  <fragmenstein_mode>  (107) 
expansion

>  <HIPPO Compound ID>  (107) 
1100

>  <HIPPO Pose ID>  (107) 
7177

>  <ref_mols>  (107) 
B0738a,B1463a

>  <fragmenstein_runtime>  (107) 
4.966329

>  <fragmenstein_outcome>  (107) 
acceptable

>  <distance_score>  (107) 
0.828874

>  <score_inspiration>  (107) 
0.580959

>  <original ID>  (107) 
JDSFMHCDLBLTOW-UHFFFAOYSA-N

>  <ref_pdb>  (107) 
B0738a

>  <alias>  (107) 
None

$$$$
7178
     RDKit          3D

 32 36  0  0  0  0  0  0  0  0999 V2000
   -0.3092   -0.2052   27.7833 C   0  0  0  0  0  0  0  0  0  0  0  0
   -0.5950   -0.2031   29.1873 N   0  0  0  0  0  0  0  0  0  0  0  0
   -0.3458    0.7870   30.0873 C   0  0  0  0  0  0  0  0  0  0  0  0
   -0.7230    0.2867   31.3116 C   0  0  0  0  0  0  0  0  0  0  0  0
   -1.1916   -1.0133   31.0344 C   0  0  0  0  0  0  0  0  0  0  0  0
   -1.6312   -2.1931   32.2213 S   0  0  0  0  0  0  0  0  0  0  0  0
   -3.0630   -2.3592   32.1564 O   0  0  0  0  0  0  0  0  0  0  0  0
   -0.9399   -1.8080   33.4322 O   0  0  0  0  0  0  0  0  0  0  0  0
   -0.9908   -3.6555   31.7477 N   0  0  0  0  0  0  0  0  0  0  0  0
    0.4295   -3.6292   31.3335 C   0  0  0  0  0  0  0  0  0  0  0  0
    0.8824   -5.0068   31.6799 C   0  0  0  0  0  0  0  0  0  0  0  0
    1.1970   -5.1936   33.0942 C   0  0  0  0  0  0  0  0  0  0  0  0
    0.6065   -6.2097   33.7497 C   0  0  0  0  0  0  0  0  0  0  0  0
    0.8241   -6.5039   35.0917 N   0  0  0  0  0  0  0  0  0  0  0  0
    1.9284   -7.2195   35.4245 C   0  0  0  0  0  0  0  0  0  0  0  0
    2.7035   -7.9003   34.5729 N   0  0  0  0  0  0  0  0  0  0  0  0
    3.7019   -8.2921   35.3682 N   0  0  0  0  0  0  0  0  0  0  0  0
    3.4455   -8.0039   36.6746 C   0  0  0  0  0  0  0  0  0  0  0  0
    4.2002   -8.6020   37.7695 C   0  0  0  0  0  0  0  0  0  0  0  0
    5.4464   -9.2189   37.5602 C   0  0  0  0  0  0  0  0  0  0  0  0
    6.0858   -9.8950   38.5992 C   0  0  0  0  0  0  0  0  0  0  0  0
    5.4935   -9.9528   39.8575 C   0  0  0  0  0  0  0  0  0  0  0  0
    4.2674   -9.3331   40.0834 C   0  0  0  0  0  0  0  0  0  0  0  0
    3.6254   -8.6610   39.0434 C   0  0  0  0  0  0  0  0  0  0  0  0
    2.3605   -7.2493   36.7162 N   0  0  0  0  0  0  0  0  0  0  0  0
   -0.1874   -7.0701   32.9695 N   0  0  0  0  0  0  0  0  0  0  0  0
   -1.1338   -7.9774   33.3268 C   0  0  0  0  0  0  0  0  0  0  0  0
   -1.6448   -8.5515   32.2589 N   0  0  0  0  0  0  0  0  0  0  0  0
   -1.0599   -7.9954   31.1525 N   0  0  0  0  0  0  0  0  0  0  0  0
   -0.2257   -7.0743   31.5808 C   0  0  0  0  0  0  0  0  0  0  0  0
    0.4161   -6.0093   30.9024 C   0  0  0  0  0  0  0  0  0  0  0  0
   -1.0807   -1.3214   29.7344 N   0  0  0  0  0  0  0  0  0  0  0  0
  1  2  1  0
  2  3  1  0
  3  4  2  0
  4  5  1  0
  5  6  1  0
  6  7  2  0
  6  8  2  0
  6  9  1  0
  9 10  1  0
 10 11  1  0
 11 12  1  0
 12 13  2  0
 13 14  1  0
 14 15  1  0
 15 16  2  0
 16 17  1  0
 17 18  1  0
 18 19  1  0
 19 20  2  0
 20 21  1  0
 21 22  2  0
 22 23  1  0
 23 24  2  0
 18 25  2  0
 13 26  1  0
 26 27  1  0
 27 28  2  0
 28 29  1  0
 29 30  2  0
 30 31  1  0
  5 32  2  0
 32  2  1  0
 31 11  2  0
 25 15  1  0
 30 26  1  0
 24 19  1  0
M  END
>  <SLURM_JOB_ID>  (108) 
350558

>  <original SMILES>  (108) 
Cn1ccc(S(=O)(=O)NCc2cc(Nc3n[nH]c(-c4ccccc4)n3)n3cnnc3c2)n1

>  <tags>  (108) 
Fragmenstein placed

>  <inchikey>  (108) 
JDSFMHCDLBLTOW-UHFFFAOYSA-N

>  <scratch_subdir>  (108) 
/opt/xchem-fragalysis-2/maxwin/BulkDock/SCRATCH/350558/C1100-P202

>  <name>  (108) 
JDSFMHCDLBLTOW-UHFFFAOYSA-N

>  <energy_score>  (108) 
-21.669994

>  <fragmenstein_error>  (108) 
None

>  <csv_name>  (108) 
D68EV3C_iter1_fstein_split1000_batch000.csv

>  <fragmenstein_mode>  (108) 
expansion

>  <HIPPO Compound ID>  (108) 
1100

>  <HIPPO Pose ID>  (108) 
7178

>  <ref_mols>  (108) 
B0738a,B1463a

>  <fragmenstein_runtime>  (108) 
4.460981

>  <fragmenstein_outcome>  (108) 
acceptable

>  <distance_score>  (108) 
0.887756

>  <score_inspiration>  (108) 
0.582579

>  <original ID>  (108) 
JDSFMHCDLBLTOW-UHFFFAOYSA-N

>  <ref_pdb>  (108) 
B1463a

>  <alias>  (108) 
None

$$$$
7179
     RDKit          3D

 31 35  0  0  0  0  0  0  0  0999 V2000
    0.9827   -2.8654   28.0842 O   0  0  0  0  0  0  0  0  0  0  0  0
    0.7221   -1.8745   29.0991 S   0  0  0  0  0  0  0  0  0  0  0  0
    1.7842   -1.3451   29.9305 O   0  0  0  0  0  0  0  0  0  0  0  0
   -0.5038   -2.4408   30.0776 N   0  0  0  0  0  0  0  0  0  0  0  0
   -0.1731   -2.8374   31.4278 C   0  0  0  0  0  0  0  0  0  0  0  0
   -0.0362   -4.3274   31.5807 C   0  0  0  0  0  0  0  0  0  0  0  0
    0.2054   -4.7669   32.9579 C   0  0  0  0  0  0  0  0  0  0  0  0
   -0.0429   -6.0395   33.3293 C   0  0  0  0  0  0  0  0  0  0  0  0
    0.0934   -6.5507   34.6071 N   0  0  0  0  0  0  0  0  0  0  0  0
   -0.1190   -5.9341   35.7803 C   0  0  0  0  0  0  0  0  0  0  0  0
   -0.5054   -4.6804   36.0116 N   0  0  0  0  0  0  0  0  0  0  0  0
   -0.6342   -4.6761   37.3441 N   0  0  0  0  0  0  0  0  0  0  0  0
   -0.3418   -5.8956   37.8856 C   0  0  0  0  0  0  0  0  0  0  0  0
   -0.4256   -6.2306   39.3033 C   0  0  0  0  0  0  0  0  0  0  0  0
    0.1869   -7.4053   39.7649 C   0  0  0  0  0  0  0  0  0  0  0  0
    0.0568   -7.8040   41.0962 C   0  0  0  0  0  0  0  0  0  0  0  0
   -0.6884   -7.0321   41.9832 C   0  0  0  0  0  0  0  0  0  0  0  0
   -1.2969   -5.8596   41.5425 C   0  0  0  0  0  0  0  0  0  0  0  0
   -1.1633   -5.4566   40.2112 C   0  0  0  0  0  0  0  0  0  0  0  0
   -0.0056   -6.7037   36.8983 N   0  0  0  0  0  0  0  0  0  0  0  0
   -0.4898   -6.8917   32.3112 N   0  0  0  0  0  0  0  0  0  0  0  0
   -1.1206   -8.0958   32.3842 C   0  0  0  0  0  0  0  0  0  0  0  0
   -1.3876   -8.5573   31.1889 N   0  0  0  0  0  0  0  0  0  0  0  0
   -0.9955   -7.5989   30.2876 N   0  0  0  0  0  0  0  0  0  0  0  0
   -0.5108   -6.5799   30.9667 C   0  0  0  0  0  0  0  0  0  0  0  0
   -0.2197   -5.2402   30.6027 C   0  0  0  0  0  0  0  0  0  0  0  0
    0.0918   -0.4657   28.2902 C   0  0  0  0  0  0  0  0  0  0  0  0
    0.9007    0.5775   27.8876 C   0  0  0  0  0  0  0  0  0  0  0  0
   -0.0658    1.8844   27.3510 S   0  0  0  0  0  0  0  0  0  0  0  0
   -1.4730    0.9435   27.6307 C   0  0  0  0  0  0  0  0  0  0  0  0
   -1.2820   -0.2434   28.1663 N   0  0  0  0  0  0  0  0  0  0  0  0
  1  2  2  0
  2  3  2  0
  2  4  1  0
  4  5  1  0
  5  6  1  0
  6  7  1  0
  7  8  2  0
  8  9  1  0
  9 10  1  0
 10 11  2  0
 11 12  1  0
 12 13  1  0
 13 14  1  0
 14 15  2  0
 15 16  1  0
 16 17  2  0
 17 18  1  0
 18 19  2  0
 13 20  2  0
  8 21  1  0
 21 22  1  0
 22 23  2  0
 23 24  1  0
 24 25  2  0
 25 26  1  0
  2 27  1  0
 27 28  2  0
 28 29  1  0
 29 30  1  0
 30 31  2  0
 26  6  2  0
 31 27  1  0
 20 10  1  0
 25 21  1  0
 19 14  1  0
M  END
>  <SLURM_JOB_ID>  (109) 
350558

>  <original SMILES>  (109) 
O=S(=O)(NCc1cc(Nc2n[nH]c(-c3ccccc3)n2)n2cnnc2c1)c1cscn1

>  <tags>  (109) 
Fragmenstein placed

>  <inchikey>  (109) 
SLDWBFOSOMALSF-UHFFFAOYSA-N

>  <scratch_subdir>  (109) 
/opt/xchem-fragalysis-2/maxwin/BulkDock/SCRATCH/350558/C1101-P13

>  <name>  (109) 
SLDWBFOSOMALSF-UHFFFAOYSA-N

>  <energy_score>  (109) 
-96.113146

>  <fragmenstein_error>  (109) 
None

>  <csv_name>  (109) 
D68EV3C_iter1_fstein_split1000_batch000.csv

>  <fragmenstein_mode>  (109) 
expansion

>  <HIPPO Compound ID>  (109) 
1101

>  <HIPPO Pose ID>  (109) 
7179

>  <ref_mols>  (109) 
7gp9-a,B0742a

>  <fragmenstein_runtime>  (109) 
5.13931

>  <fragmenstein_outcome>  (109) 
acceptable

>  <distance_score>  (109) 
0.802831

>  <score_inspiration>  (109) 
0.663017

>  <original ID>  (109) 
SLDWBFOSOMALSF-UHFFFAOYSA-N

>  <ref_pdb>  (109) 
7gp9-a

>  <alias>  (109) 
None

$$$$
7180
     RDKit          3D

 31 35  0  0  0  0  0  0  0  0999 V2000
    1.1459   -2.8248   28.1446 O   0  0  0  0  0  0  0  0  0  0  0  0
    0.8156   -1.8937   29.1948 S   0  0  0  0  0  0  0  0  0  0  0  0
    1.8103   -1.4447   30.1477 O   0  0  0  0  0  0  0  0  0  0  0  0
   -0.5051   -2.4906   30.0224 N   0  0  0  0  0  0  0  0  0  0  0  0
   -0.3240   -2.8604   31.4094 C   0  0  0  0  0  0  0  0  0  0  0  0
   -0.0893   -4.3362   31.5930 C   0  0  0  0  0  0  0  0  0  0  0  0
    0.1674   -4.7433   32.9793 C   0  0  0  0  0  0  0  0  0  0  0  0
   -0.0508   -6.0144   33.3763 C   0  0  0  0  0  0  0  0  0  0  0  0
    0.1051   -6.5100   34.6570 N   0  0  0  0  0  0  0  0  0  0  0  0
   -0.0877   -5.8839   35.8272 C   0  0  0  0  0  0  0  0  0  0  0  0
   -0.3979   -4.6117   36.0696 N   0  0  0  0  0  0  0  0  0  0  0  0
   -0.5853   -4.6272   37.3953 N   0  0  0  0  0  0  0  0  0  0  0  0
   -0.3735   -5.8692   37.9232 C   0  0  0  0  0  0  0  0  0  0  0  0
   -0.5150   -6.2271   39.3293 C   0  0  0  0  0  0  0  0  0  0  0  0
    0.0968   -7.3988   39.8000 C   0  0  0  0  0  0  0  0  0  0  0  0
   -0.0603   -7.8041   41.1260 C   0  0  0  0  0  0  0  0  0  0  0  0
   -0.8372   -7.0447   41.9964 C   0  0  0  0  0  0  0  0  0  0  0  0
   -1.4547   -5.8812   41.5426 C   0  0  0  0  0  0  0  0  0  0  0  0
   -1.2930   -5.4707   40.2168 C   0  0  0  0  0  0  0  0  0  0  0  0
   -0.0343   -6.6720   36.9349 N   0  0  0  0  0  0  0  0  0  0  0  0
   -0.4831   -6.8927   32.3761 N   0  0  0  0  0  0  0  0  0  0  0  0
   -1.1058   -8.1006   32.4683 C   0  0  0  0  0  0  0  0  0  0  0  0
   -1.3242   -8.5899   31.2733 N   0  0  0  0  0  0  0  0  0  0  0  0
   -0.9245   -7.6513   30.3560 N   0  0  0  0  0  0  0  0  0  0  0  0
   -0.4796   -6.6098   31.0230 C   0  0  0  0  0  0  0  0  0  0  0  0
   -0.2168   -5.2736   30.6292 C   0  0  0  0  0  0  0  0  0  0  0  0
    0.2933   -0.4191   28.4218 C   0  0  0  0  0  0  0  0  0  0  0  0
    1.1677    0.6054   28.1201 C   0  0  0  0  0  0  0  0  0  0  0  0
    0.2904    1.9866   27.6142 S   0  0  0  0  0  0  0  0  0  0  0  0
   -1.1672    1.0926   27.7447 C   0  0  0  0  0  0  0  0  0  0  0  0
   -1.0588   -0.1317   28.2155 N   0  0  0  0  0  0  0  0  0  0  0  0
  1  2  2  0
  2  3  2  0
  2  4  1  0
  4  5  1  0
  5  6  1  0
  6  7  1  0
  7  8  2  0
  8  9  1  0
  9 10  1  0
 10 11  2  0
 11 12  1  0
 12 13  1  0
 13 14  1  0
 14 15  2  0
 15 16  1  0
 16 17  2  0
 17 18  1  0
 18 19  2  0
 13 20  2  0
  8 21  1  0
 21 22  1  0
 22 23  2  0
 23 24  1  0
 24 25  2  0
 25 26  1  0
  2 27  1  0
 27 28  2  0
 28 29  1  0
 29 30  1  0
 30 31  2  0
 26  6  2  0
 31 27  1  0
 20 10  1  0
 25 21  1  0
 19 14  1  0
M  END
>  <SLURM_JOB_ID>  (110) 
350558

>  <original SMILES>  (110) 
O=S(=O)(NCc1cc(Nc2n[nH]c(-c3ccccc3)n2)n2cnnc2c1)c1cscn1

>  <tags>  (110) 
Fragmenstein placed

>  <inchikey>  (110) 
SLDWBFOSOMALSF-UHFFFAOYSA-N

>  <scratch_subdir>  (110) 
/opt/xchem-fragalysis-2/maxwin/BulkDock/SCRATCH/350558/C1101-P150

>  <name>  (110) 
SLDWBFOSOMALSF-UHFFFAOYSA-N

>  <energy_score>  (110) 
-94.454603

>  <fragmenstein_error>  (110) 
None

>  <csv_name>  (110) 
D68EV3C_iter1_fstein_split1000_batch000.csv

>  <fragmenstein_mode>  (110) 
expansion

>  <HIPPO Compound ID>  (110) 
1101

>  <HIPPO Pose ID>  (110) 
7180

>  <ref_mols>  (110) 
7gp9-a,B0742a

>  <fragmenstein_runtime>  (110) 
5.463378

>  <fragmenstein_outcome>  (110) 
acceptable

>  <distance_score>  (110) 
0.773546

>  <score_inspiration>  (110) 
0.64621

>  <original ID>  (110) 
SLDWBFOSOMALSF-UHFFFAOYSA-N

>  <ref_pdb>  (110) 
B0742a

>  <alias>  (110) 
None

$$$$
7209
     RDKit          3D

 34 38  0  0  0  0  0  0  0  0999 V2000
   -0.1698    1.7199   28.3299 C   0  0  0  0  0  0  0  0  0  0  0  0
   -0.6021    0.4338   28.8238 N   0  0  0  0  0  0  0  0  0  0  0  0
   -1.1893   -0.5459   28.0851 C   0  0  0  0  0  0  0  0  0  0  0  0
   -1.4049   -1.6003   28.9366 C   0  0  0  0  0  0  0  0  0  0  0  0
   -0.9172   -1.1614   30.1801 C   0  0  0  0  0  0  0  0  0  0  0  0
   -0.7753   -2.1844   31.5927 S   0  0  0  0  0  0  0  0  0  0  0  0
   -1.0654   -1.3303   32.7233 O   0  0  0  0  0  0  0  0  0  0  0  0
   -1.5511   -3.3756   31.3181 O   0  0  0  0  0  0  0  0  0  0  0  0
    0.8869   -2.5496   31.6770 N   0  0  0  0  0  0  0  0  0  0  0  0
    1.4050   -3.5948   30.7764 C   0  0  0  0  0  0  0  0  0  0  0  0
    1.0115   -4.9223   31.3628 C   0  0  0  0  0  0  0  0  0  0  0  0
    1.1962   -5.0811   32.8019 C   0  0  0  0  0  0  0  0  0  0  0  0
    0.3731   -5.8820   33.5147 C   0  0  0  0  0  0  0  0  0  0  0  0
    0.3666   -5.5286   34.9264 N   0  0  0  0  0  0  0  0  0  0  0  0
    0.4306   -4.0871   35.3057 C   0  0  0  0  0  0  0  0  0  0  0  0
   -0.7313   -3.6528   36.1604 C   0  0  0  0  0  0  0  0  0  0  0  0
   -0.8121   -4.3517   37.5001 C   0  0  0  0  0  0  0  0  0  0  0  0
    0.0678   -5.6011   37.6484 C   0  0  1  0  0  0  0  0  0  0  0  0
   -0.2082   -6.3615   38.9501 C   0  0  0  0  0  0  0  0  0  0  0  0
    0.4909   -7.5346   39.2644 C   0  0  0  0  0  0  0  0  0  0  0  0
    0.3281   -8.1649   40.5052 C   0  0  0  0  0  0  0  0  0  0  0  0
   -0.5271   -7.6361   41.4669 C   0  0  0  0  0  0  0  0  0  0  0  0
   -1.2214   -6.4687   41.1911 C   0  0  0  0  0  0  0  0  0  0  0  0
   -1.0596   -5.8404   39.9529 C   0  0  0  0  0  0  0  0  0  0  0  0
   -0.1083   -6.6207   36.1387 S   0  0  0  0  0  0  0  0  0  0  0  0
   -1.5146   -6.9070   35.9515 O   0  0  0  0  0  0  0  0  0  0  0  0
    0.9100   -7.6500   36.0941 O   0  0  0  0  0  0  0  0  0  0  0  0
   -0.3985   -6.8110   32.7820 N   0  0  0  0  0  0  0  0  0  0  0  0
   -1.2483   -7.8317   33.0967 C   0  0  0  0  0  0  0  0  0  0  0  0
   -1.7139   -8.4111   32.0088 N   0  0  0  0  0  0  0  0  0  0  0  0
   -1.1878   -7.7805   30.9263 N   0  0  0  0  0  0  0  0  0  0  0  0
   -0.4066   -6.8300   31.3782 C   0  0  0  0  0  0  0  0  0  0  0  0
    0.2720   -5.8078   30.6773 C   0  0  0  0  0  0  0  0  0  0  0  0
   -0.3727    0.0717   30.1029 N   0  0  0  0  0  0  0  0  0  0  0  0
  1  2  1  0
  2  3  1  0
  3  4  2  0
  4  5  1  0
  5  6  1  0
  6  7  2  0
  6  8  2  0
  6  9  1  0
  9 10  1  0
 10 11  1  0
 11 12  1  0
 12 13  2  0
 13 14  1  0
 14 15  1  0
 15 16  1  0
 16 17  1  0
 17 18  1  0
 18 19  1  1
 19 20  2  0
 20 21  1  0
 21 22  2  0
 22 23  1  0
 23 24  2  0
 18 25  1  0
 25 26  2  0
 25 27  2  0
 13 28  1  0
 28 29  1  0
 29 30  2  0
 30 31  1  0
 31 32  2  0
 32 33  1  0
  5 34  2  0
 34  2  1  0
 33 11  2  0
 25 14  1  0
 32 28  1  0
 24 19  1  0
M  END
>  <SLURM_JOB_ID>  (111) 
350558

>  <original SMILES>  (111) 
Cn1ccc(S(=O)(=O)NCc2cc(N3CCC[C@@H](c4ccccc4)S3(=O)=O)n3cnnc3c2)n1

>  <tags>  (111) 
Fragmenstein placed

>  <inchikey>  (111) 
IELYVEIWJLORIZ-SFHVURJKSA-N

>  <scratch_subdir>  (111) 
/opt/xchem-fragalysis-2/maxwin/BulkDock/SCRATCH/350558/C1121-P150

>  <name>  (111) 
IELYVEIWJLORIZ-SFHVURJKSA-N

>  <energy_score>  (111) 
-51.831745

>  <fragmenstein_error>  (111) 
None

>  <csv_name>  (111) 
D68EV3C_iter1_fstein_split1000_batch000.csv

>  <fragmenstein_mode>  (111) 
expansion

>  <HIPPO Compound ID>  (111) 
1121

>  <HIPPO Pose ID>  (111) 
7209

>  <ref_mols>  (111) 
B0742a,B1307a

>  <fragmenstein_runtime>  (111) 
5.956809

>  <fragmenstein_outcome>  (111) 
acceptable

>  <distance_score>  (111) 
0.828322

>  <score_inspiration>  (111) 
0.661536

>  <original ID>  (111) 
IELYVEIWJLORIZ-SFHVURJKSA-N

>  <ref_pdb>  (111) 
B0742a

>  <alias>  (111) 
None

$$$$
7210
     RDKit          3D

 34 38  0  0  0  0  0  0  0  0999 V2000
    0.1948    1.5380   28.6993 C   0  0  0  0  0  0  0  0  0  0  0  0
   -0.4016    0.2768   29.0730 N   0  0  0  0  0  0  0  0  0  0  0  0
   -0.8327   -0.7171   28.2458 C   0  0  0  0  0  0  0  0  0  0  0  0
   -1.2284   -1.7601   29.0428 C   0  0  0  0  0  0  0  0  0  0  0  0
   -0.9340   -1.3233   30.3467 C   0  0  0  0  0  0  0  0  0  0  0  0
   -0.8389   -2.3818   31.7264 S   0  0  0  0  0  0  0  0  0  0  0  0
   -1.2181   -1.5735   32.8646 O   0  0  0  0  0  0  0  0  0  0  0  0
   -1.5604   -3.5859   31.3732 O   0  0  0  0  0  0  0  0  0  0  0  0
    0.8293   -2.6889   31.8833 N   0  0  0  0  0  0  0  0  0  0  0  0
    1.4668   -3.6285   30.9350 C   0  0  0  0  0  0  0  0  0  0  0  0
    1.1536   -5.0173   31.4191 C   0  0  0  0  0  0  0  0  0  0  0  0
    1.3189   -5.2377   32.8543 C   0  0  0  0  0  0  0  0  0  0  0  0
    0.4923   -6.0908   33.4922 C   0  0  0  0  0  0  0  0  0  0  0  0
    0.3293   -5.6748   34.8700 N   0  0  0  0  0  0  0  0  0  0  0  0
   -0.3338   -4.3478   35.0136 C   0  0  0  0  0  0  0  0  0  0  0  0
   -1.3244   -4.2901   36.1340 C   0  0  0  0  0  0  0  0  0  0  0  0
   -0.7032   -4.5074   37.4842 C   0  0  0  0  0  0  0  0  0  0  0  0
    0.2535   -5.7132   37.6148 C   0  0  1  0  0  0  0  0  0  0  0  0
    0.0507   -6.4374   38.9544 C   0  0  0  0  0  0  0  0  0  0  0  0
    0.4686   -7.7504   39.1857 C   0  0  0  0  0  0  0  0  0  0  0  0
    0.2687   -8.3636   40.4317 C   0  0  0  0  0  0  0  0  0  0  0  0
   -0.3423   -7.6854   41.4809 C   0  0  0  0  0  0  0  0  0  0  0  0
   -0.7165   -6.3660   41.3035 C   0  0  0  0  0  0  0  0  0  0  0  0
   -0.4923   -5.7476   40.0708 C   0  0  0  0  0  0  0  0  0  0  0  0
    0.1480   -6.8036   36.1228 S   0  0  0  0  0  0  0  0  0  0  0  0
   -1.1884   -7.3442   36.0053 O   0  0  0  0  0  0  0  0  0  0  0  0
    1.3110   -7.6636   36.0158 O   0  0  0  0  0  0  0  0  0  0  0  0
   -0.3007   -6.9461   32.7049 N   0  0  0  0  0  0  0  0  0  0  0  0
   -1.2627   -7.8735   32.9726 C   0  0  0  0  0  0  0  0  0  0  0  0
   -1.7151   -8.4193   31.8630 N   0  0  0  0  0  0  0  0  0  0  0  0
   -1.0847   -7.8250   30.8093 N   0  0  0  0  0  0  0  0  0  0  0  0
   -0.2599   -6.9301   31.3047 C   0  0  0  0  0  0  0  0  0  0  0  0
    0.4655   -5.8934   30.6638 C   0  0  0  0  0  0  0  0  0  0  0  0
   -0.4353   -0.0726   30.3706 N   0  0  0  0  0  0  0  0  0  0  0  0
  1  2  1  0
  2  3  1  0
  3  4  2  0
  4  5  1  0
  5  6  1  0
  6  7  2  0
  6  8  2  0
  6  9  1  0
  9 10  1  0
 10 11  1  0
 11 12  1  0
 12 13  2  0
 13 14  1  0
 14 15  1  0
 15 16  1  0
 16 17  1  0
 17 18  1  0
 18 19  1  1
 19 20  2  0
 20 21  1  0
 21 22  2  0
 22 23  1  0
 23 24  2  0
 18 25  1  0
 25 26  2  0
 25 27  2  0
 13 28  1  0
 28 29  1  0
 29 30  2  0
 30 31  1  0
 31 32  2  0
 32 33  1  0
  5 34  2  0
 34  2  1  0
 33 11  2  0
 25 14  1  0
 32 28  1  0
 24 19  1  0
M  END
>  <SLURM_JOB_ID>  (112) 
350558

>  <original SMILES>  (112) 
Cn1ccc(S(=O)(=O)NCc2cc(N3CCC[C@@H](c4ccccc4)S3(=O)=O)n3cnnc3c2)n1

>  <tags>  (112) 
Fragmenstein placed

>  <inchikey>  (112) 
IELYVEIWJLORIZ-SFHVURJKSA-N

>  <scratch_subdir>  (112) 
/opt/xchem-fragalysis-2/maxwin/BulkDock/SCRATCH/350558/C1121-P186

>  <name>  (112) 
IELYVEIWJLORIZ-SFHVURJKSA-N

>  <energy_score>  (112) 
-45.651622

>  <fragmenstein_error>  (112) 
None

>  <csv_name>  (112) 
D68EV3C_iter1_fstein_split1000_batch000.csv

>  <fragmenstein_mode>  (112) 
expansion

>  <HIPPO Compound ID>  (112) 
1121

>  <HIPPO Pose ID>  (112) 
7210

>  <ref_mols>  (112) 
B0742a,B1307a

>  <fragmenstein_runtime>  (112) 
4.86888

>  <fragmenstein_outcome>  (112) 
acceptable

>  <distance_score>  (112) 
0.82397

>  <score_inspiration>  (112) 
0.633376

>  <original ID>  (112) 
IELYVEIWJLORIZ-SFHVURJKSA-N

>  <ref_pdb>  (112) 
B1307a

>  <alias>  (112) 
None

$$$$
7212
     RDKit          3D

 33 37  0  0  0  0  0  0  0  0999 V2000
   -1.3841   -0.8696   32.4169 O   0  0  0  0  0  0  0  0  0  0  0  0
   -1.1698   -1.7474   31.2874 S   0  0  0  0  0  0  0  0  0  0  0  0
   -2.0113   -2.8950   31.0329 O   0  0  0  0  0  0  0  0  0  0  0  0
    0.4571   -2.2077   31.3279 N   0  0  0  0  0  0  0  0  0  0  0  0
    0.8672   -3.3224   30.4656 C   0  0  0  0  0  0  0  0  0  0  0  0
    0.5376   -4.6058   31.1756 C   0  0  0  0  0  0  0  0  0  0  0  0
    0.7445   -4.6761   32.6179 C   0  0  0  0  0  0  0  0  0  0  0  0
    0.2722   -5.6925   33.3760 C   0  0  0  0  0  0  0  0  0  0  0  0
    0.5265   -5.5198   34.8015 N   0  0  0  0  0  0  0  0  0  0  0  0
    1.5084   -4.5588   35.3423 C   0  0  0  0  0  0  0  0  0  0  0  0
    0.7298   -3.5389   36.1672 C   0  0  0  0  0  0  0  0  0  0  0  0
   -0.1584   -4.1759   37.2435 C   0  0  0  0  0  0  0  0  0  0  0  0
    0.2737   -5.6183   37.5356 C   0  0  1  0  0  0  0  0  0  0  0  0
   -0.2271   -6.2453   38.8258 C   0  0  0  0  0  0  0  0  0  0  0  0
    0.2762   -7.4908   39.2404 C   0  0  0  0  0  0  0  0  0  0  0  0
   -0.0035   -7.9976   40.5150 C   0  0  0  0  0  0  0  0  0  0  0  0
   -0.7794   -7.2677   41.4102 C   0  0  0  0  0  0  0  0  0  0  0  0
   -1.2918   -6.0350   41.0234 C   0  0  0  0  0  0  0  0  0  0  0  0
   -1.0231   -5.5327   39.7439 C   0  0  0  0  0  0  0  0  0  0  0  0
   -0.0342   -6.6054   36.0090 S   0  0  0  0  0  0  0  0  0  0  0  0
    0.9130   -7.6981   35.9427 O   0  0  0  0  0  0  0  0  0  0  0  0
   -1.4571   -6.7672   35.8062 O   0  0  0  0  0  0  0  0  0  0  0  0
   -0.4232   -6.7098   32.6785 N   0  0  0  0  0  0  0  0  0  0  0  0
   -1.1045   -7.8346   33.0368 C   0  0  0  0  0  0  0  0  0  0  0  0
   -1.5868   -8.4611   31.9839 N   0  0  0  0  0  0  0  0  0  0  0  0
   -1.2390   -7.7582   30.8756 N   0  0  0  0  0  0  0  0  0  0  0  0
   -0.5608   -6.7125   31.2839 C   0  0  0  0  0  0  0  0  0  0  0  0
   -0.0645   -5.6203   30.5441 C   0  0  0  0  0  0  0  0  0  0  0  0
   -1.2862   -0.7092   29.8881 C   0  0  0  0  0  0  0  0  0  0  0  0
   -1.5542   -1.1606   28.6133 C   0  0  0  0  0  0  0  0  0  0  0  0
   -1.4435    0.1484   27.5134 S   0  0  0  0  0  0  0  0  0  0  0  0
   -1.0398    1.1955   28.7959 C   0  0  0  0  0  0  0  0  0  0  0  0
   -0.9226    0.6360   29.9798 N   0  0  0  0  0  0  0  0  0  0  0  0
  1  2  2  0
  2  3  2  0
  2  4  1  0
  4  5  1  0
  5  6  1  0
  6  7  1  0
  7  8  2  0
  8  9  1  0
  9 10  1  0
 10 11  1  0
 11 12  1  0
 12 13  1  0
 13 14  1  1
 14 15  2  0
 15 16  1  0
 16 17  2  0
 17 18  1  0
 18 19  2  0
 13 20  1  0
 20 21  2  0
 20 22  2  0
  8 23  1  0
 23 24  1  0
 24 25  2  0
 25 26  1  0
 26 27  2  0
 27 28  1  0
  2 29  1  0
 29 30  2  0
 30 31  1  0
 31 32  1  0
 32 33  2  0
 28  6  2  0
 33 29  1  0
 20  9  1  0
 27 23  1  0
 19 14  1  0
M  END
>  <SLURM_JOB_ID>  (113) 
350558

>  <original SMILES>  (113) 
O=S(=O)(NCc1cc(N2CCC[C@@H](c3ccccc3)S2(=O)=O)n2cnnc2c1)c1cscn1

>  <tags>  (113) 
Fragmenstein placed

>  <inchikey>  (113) 
GUQYNUCXGFLGTG-KRWDZBQOSA-N

>  <scratch_subdir>  (113) 
/opt/xchem-fragalysis-2/maxwin/BulkDock/SCRATCH/350558/C1122-P188

>  <name>  (113) 
GUQYNUCXGFLGTG-KRWDZBQOSA-N

>  <energy_score>  (113) 
-83.315298

>  <fragmenstein_error>  (113) 
None

>  <csv_name>  (113) 
D68EV3C_iter1_fstein_split1000_batch000.csv

>  <fragmenstein_mode>  (113) 
expansion

>  <HIPPO Compound ID>  (113) 
1122

>  <HIPPO Pose ID>  (113) 
7212

>  <ref_mols>  (113) 
B0742a,B1361a

>  <fragmenstein_runtime>  (113) 
5.23087

>  <fragmenstein_outcome>  (113) 
acceptable

>  <distance_score>  (113) 
0.971298

>  <score_inspiration>  (113) 
0.67812

>  <original ID>  (113) 
GUQYNUCXGFLGTG-KRWDZBQOSA-N

>  <ref_pdb>  (113) 
B1361a

>  <alias>  (113) 
None

$$$$
7213
     RDKit          3D

 34 38  0  0  0  0  0  0  0  0999 V2000
   -1.9001   -3.3709   31.3689 O   0  0  0  0  0  0  0  0  0  0  0  0
   -1.2058   -2.1303   31.6041 S   0  0  0  0  0  0  0  0  0  0  0  0
   -1.4298   -1.3669   32.8101 O   0  0  0  0  0  0  0  0  0  0  0  0
    0.4400   -2.3812   31.5672 N   0  0  0  0  0  0  0  0  0  0  0  0
    1.0781   -3.4449   30.7854 C   0  0  0  0  0  0  0  0  0  0  0  0
    0.7982   -4.7812   31.3950 C   0  0  0  0  0  0  0  0  0  0  0  0
    1.0181   -4.9234   32.8247 C   0  0  0  0  0  0  0  0  0  0  0  0
    0.3086   -5.8344   33.5214 C   0  0  0  0  0  0  0  0  0  0  0  0
    0.2698   -5.4677   34.9221 N   0  0  0  0  0  0  0  0  0  0  0  0
   -0.4191   -4.1549   35.1675 C   0  0  0  0  0  0  0  0  0  0  0  0
   -0.8120   -3.9232   36.6094 C   0  0  0  0  0  0  0  0  0  0  0  0
    0.3680   -4.2753   37.4946 C   0  0  0  0  0  0  0  0  0  0  0  0
    0.5668   -5.7918   37.6179 C   0  0  1  0  0  0  0  0  0  0  0  0
   -0.0365   -6.4005   38.8794 C   0  0  0  0  0  0  0  0  0  0  0  0
    0.5016   -7.5930   39.3874 C   0  0  0  0  0  0  0  0  0  0  0  0
    0.1108   -8.0845   40.6374 C   0  0  0  0  0  0  0  0  0  0  0  0
   -0.8283   -7.3994   41.4030 C   0  0  0  0  0  0  0  0  0  0  0  0
   -1.3996   -6.2342   40.9057 C   0  0  0  0  0  0  0  0  0  0  0  0
   -1.0185   -5.7483   39.6509 C   0  0  0  0  0  0  0  0  0  0  0  0
    0.0601   -6.6748   36.1005 S   0  0  0  0  0  0  0  0  0  0  0  0
   -1.3577   -6.9633   36.1344 O   0  0  0  0  0  0  0  0  0  0  0  0
    1.0543   -7.6819   35.7823 O   0  0  0  0  0  0  0  0  0  0  0  0
   -0.4173   -6.8002   32.7994 N   0  0  0  0  0  0  0  0  0  0  0  0
   -1.2392   -7.8378   33.1281 C   0  0  0  0  0  0  0  0  0  0  0  0
   -1.6784   -8.4451   32.0445 N   0  0  0  0  0  0  0  0  0  0  0  0
   -1.1755   -7.8031   30.9552 N   0  0  0  0  0  0  0  0  0  0  0  0
   -0.4410   -6.8134   31.4003 C   0  0  0  0  0  0  0  0  0  0  0  0
    0.1538   -5.7373   30.7044 C   0  0  0  0  0  0  0  0  0  0  0  0
   -1.3988   -1.1023   30.3007 N   0  0  0  0  0  0  0  0  0  0  0  0
   -1.1943   -1.6655   28.9378 C   0  0  0  0  0  0  0  0  0  0  0  0
    0.1081   -1.1139   28.3669 C   0  0  0  0  0  0  0  0  0  0  0  0
    0.0863    0.2919   28.1354 O   0  0  0  0  0  0  0  0  0  0  0  0
   -0.7082    0.9834   29.1003 C   0  0  0  0  0  0  0  0  0  0  0  0
   -0.8029    0.2610   30.4529 C   0  0  0  0  0  0  0  0  0  0  0  0
  1  2  2  0
  2  3  2  0
  2  4  1  0
  4  5  1  0
  5  6  1  0
  6  7  1  0
  7  8  2  0
  8  9  1  0
  9 10  1  0
 10 11  1  0
 11 12  1  0
 12 13  1  0
 13 14  1  1
 14 15  2  0
 15 16  1  0
 16 17  2  0
 17 18  1  0
 18 19  2  0
 13 20  1  0
 20 21  2  0
 20 22  2  0
  8 23  1  0
 23 24  1  0
 24 25  2  0
 25 26  1  0
 26 27  2  0
 27 28  1  0
  2 29  1  0
 29 30  1  0
 30 31  1  0
 31 32  1  0
 32 33  1  0
 33 34  1  0
 28  6  2  0
 34 29  1  0
 20  9  1  0
 27 23  1  0
 19 14  1  0
M  END
>  <SLURM_JOB_ID>  (114) 
350558

>  <original SMILES>  (114) 
O=S(=O)(NCc1cc(N2CCC[C@@H](c3ccccc3)S2(=O)=O)n2cnnc2c1)N1CCOCC1

>  <tags>  (114) 
Fragmenstein placed

>  <inchikey>  (114) 
AWVUBXWCDDDEPI-IBGZPJMESA-N

>  <scratch_subdir>  (114) 
/opt/xchem-fragalysis-2/maxwin/BulkDock/SCRATCH/350558/C1125-P150

>  <name>  (114) 
AWVUBXWCDDDEPI-IBGZPJMESA-N

>  <energy_score>  (114) 
-85.048184

>  <fragmenstein_error>  (114) 
None

>  <csv_name>  (114) 
D68EV3C_iter1_fstein_split1000_batch000.csv

>  <fragmenstein_mode>  (114) 
expansion

>  <HIPPO Compound ID>  (114) 
1125

>  <HIPPO Pose ID>  (114) 
7213

>  <ref_mols>  (114) 
B0742a,B1457a

>  <fragmenstein_runtime>  (114) 
5.861494

>  <fragmenstein_outcome>  (114) 
acceptable

>  <distance_score>  (114) 
0.904879

>  <score_inspiration>  (114) 
0.660734

>  <original ID>  (114) 
AWVUBXWCDDDEPI-IBGZPJMESA-N

>  <ref_pdb>  (114) 
B0742a

>  <alias>  (114) 
None

$$$$
7214
     RDKit          3D

 34 38  0  0  0  0  0  0  0  0999 V2000
   -1.9658   -3.3177   31.3423 O   0  0  0  0  0  0  0  0  0  0  0  0
   -1.2404   -2.0732   31.4222 S   0  0  0  0  0  0  0  0  0  0  0  0
   -1.4783   -1.1512   32.5113 O   0  0  0  0  0  0  0  0  0  0  0  0
    0.3941   -2.3572   31.4487 N   0  0  0  0  0  0  0  0  0  0  0  0
    1.0548   -3.3986   30.6557 C   0  0  0  0  0  0  0  0  0  0  0  0
    0.8154   -4.7366   31.2997 C   0  0  0  0  0  0  0  0  0  0  0  0
    1.0216   -4.8222   32.7439 C   0  0  0  0  0  0  0  0  0  0  0  0
    0.3192   -5.7215   33.4628 C   0  0  0  0  0  0  0  0  0  0  0  0
    0.0914   -5.3468   34.8411 N   0  0  0  0  0  0  0  0  0  0  0  0
    0.0518   -3.9016   35.1869 C   0  0  0  0  0  0  0  0  0  0  0  0
   -1.0032   -3.6365   36.2417 C   0  0  0  0  0  0  0  0  0  0  0  0
   -1.2523   -4.8242   37.1529 C   0  0  0  0  0  0  0  0  0  0  0  0
    0.0695   -5.4776   37.5718 C   0  0  1  0  0  0  0  0  0  0  0  0
   -0.0531   -6.2812   38.8591 C   0  0  0  0  0  0  0  0  0  0  0  0
    0.4240   -7.5767   39.0599 C   0  0  0  0  0  0  0  0  0  0  0  0
    0.2719   -8.2119   40.3022 C   0  0  0  0  0  0  0  0  0  0  0  0
   -0.3542   -7.5731   41.3693 C   0  0  0  0  0  0  0  0  0  0  0  0
   -0.8115   -6.2763   41.2083 C   0  0  0  0  0  0  0  0  0  0  0  0
   -0.6430   -5.6374   39.9782 C   0  0  0  0  0  0  0  0  0  0  0  0
    0.7553   -6.3302   36.0881 S   0  0  0  0  0  0  0  0  0  0  0  0
    0.1945   -7.6452   35.9077 O   0  0  0  0  0  0  0  0  0  0  0  0
    2.1910   -6.1267   36.0465 O   0  0  0  0  0  0  0  0  0  0  0  0
   -0.3782   -6.7187   32.7608 N   0  0  0  0  0  0  0  0  0  0  0  0
   -1.2094   -7.7298   33.1437 C   0  0  0  0  0  0  0  0  0  0  0  0
   -1.6495   -8.3887   32.0910 N   0  0  0  0  0  0  0  0  0  0  0  0
   -1.1313   -7.8029   30.9694 N   0  0  0  0  0  0  0  0  0  0  0  0
   -0.3881   -6.7954   31.3678 C   0  0  0  0  0  0  0  0  0  0  0  0
    0.2066   -5.7372   30.6376 C   0  0  0  0  0  0  0  0  0  0  0  0
   -1.4346   -1.2200   30.0083 N   0  0  0  0  0  0  0  0  0  0  0  0
   -1.4409   -1.9359   28.7042 C   0  0  0  0  0  0  0  0  0  0  0  0
   -0.4696   -1.3073   27.7035 C   0  0  0  0  0  0  0  0  0  0  0  0
    0.7270   -0.8900   28.3657 O   0  0  0  0  0  0  0  0  0  0  0  0
    0.4615    0.2093   29.2494 C   0  0  0  0  0  0  0  0  0  0  0  0
   -0.9215    0.1608   29.9083 C   0  0  0  0  0  0  0  0  0  0  0  0
  1  2  2  0
  2  3  2  0
  2  4  1  0
  4  5  1  0
  5  6  1  0
  6  7  1  0
  7  8  2  0
  8  9  1  0
  9 10  1  0
 10 11  1  0
 11 12  1  0
 12 13  1  0
 13 14  1  1
 14 15  2  0
 15 16  1  0
 16 17  2  0
 17 18  1  0
 18 19  2  0
 13 20  1  0
 20 21  2  0
 20 22  2  0
  8 23  1  0
 23 24  1  0
 24 25  2  0
 25 26  1  0
 26 27  2  0
 27 28  1  0
  2 29  1  0
 29 30  1  0
 30 31  1  0
 31 32  1  0
 32 33  1  0
 33 34  1  0
 28  6  2  0
 34 29  1  0
 20  9  1  0
 27 23  1  0
 19 14  1  0
M  END
>  <SLURM_JOB_ID>  (115) 
350558

>  <original SMILES>  (115) 
O=S(=O)(NCc1cc(N2CCC[C@@H](c3ccccc3)S2(=O)=O)n2cnnc2c1)N1CCOCC1

>  <tags>  (115) 
Fragmenstein placed

>  <inchikey>  (115) 
AWVUBXWCDDDEPI-IBGZPJMESA-N

>  <scratch_subdir>  (115) 
/opt/xchem-fragalysis-2/maxwin/BulkDock/SCRATCH/350558/C1125-P196

>  <name>  (115) 
AWVUBXWCDDDEPI-IBGZPJMESA-N

>  <energy_score>  (115) 
-78.351004

>  <fragmenstein_error>  (115) 
None

>  <csv_name>  (115) 
D68EV3C_iter1_fstein_split1000_batch000.csv

>  <fragmenstein_mode>  (115) 
expansion

>  <HIPPO Compound ID>  (115) 
1125

>  <HIPPO Pose ID>  (115) 
7214

>  <ref_mols>  (115) 
B0742a,B1457a

>  <fragmenstein_runtime>  (115) 
5.808238

>  <fragmenstein_outcome>  (115) 
acceptable

>  <distance_score>  (115) 
0.904641

>  <score_inspiration>  (115) 
0.629386

>  <original ID>  (115) 
AWVUBXWCDDDEPI-IBGZPJMESA-N

>  <ref_pdb>  (115) 
B1457a

>  <alias>  (115) 
None

$$$$
7327
     RDKit          3D

 32 36  0  0  0  0  0  0  0  0999 V2000
    0.1678   -3.2346   39.8088 C   0  0  0  0  0  0  0  0  0  0  0  0
   -0.0319   -3.7029   38.5694 C   0  0  0  0  0  0  0  0  0  0  0  0
   -0.7662   -4.9749   38.2522 C   0  0  0  0  0  0  0  0  0  0  0  0
    0.0600   -5.9234   37.5217 N   0  0  0  0  0  0  0  0  0  0  0  0
    0.2201   -6.0476   36.1675 C   0  0  0  0  0  0  0  0  0  0  0  0
   -0.4913   -4.9280   35.0906 S   0  0  0  0  0  0  0  0  0  0  0  0
   -0.0617   -5.4924   33.5203 C   0  0  0  0  0  0  0  0  0  0  0  0
    0.6360   -4.6483   32.7331 C   0  0  0  0  0  0  0  0  0  0  0  0
    0.6896   -4.8235   31.2749 C   0  0  0  0  0  0  0  0  0  0  0  0
    1.0546   -3.7025   30.4986 N   0  0  0  0  0  0  0  0  0  0  0  0
    0.4172   -2.4177   30.8452 C   0  0  0  0  0  0  0  0  0  0  0  0
   -0.9883   -2.6008   30.9854 O   0  0  0  0  0  0  0  0  0  0  0  0
    1.8816   -3.7346   29.3974 C   0  0  0  0  0  0  0  0  0  0  0  0
    2.4774   -4.8450   28.7515 C   0  0  0  0  0  0  0  0  0  0  0  0
    3.2230   -4.5119   27.6935 N   0  0  0  0  0  0  0  0  0  0  0  0
    3.1557   -3.1724   27.6851 N   0  0  0  0  0  0  0  0  0  0  0  0
    2.3613   -2.6640   28.6736 C   0  0  0  0  0  0  0  0  0  0  0  0
    0.1621   -5.9506   30.7529 C   0  0  0  0  0  0  0  0  0  0  0  0
   -0.5124   -6.8911   31.5678 C   0  0  0  0  0  0  0  0  0  0  0  0
   -1.2088   -7.9585   31.2500 N   0  0  0  0  0  0  0  0  0  0  0  0
   -1.7796   -8.4270   32.4013 N   0  0  0  0  0  0  0  0  0  0  0  0
   -1.4099   -7.6463   33.3953 C   0  0  0  0  0  0  0  0  0  0  0  0
   -0.6289   -6.6248   32.9268 N   0  0  0  0  0  0  0  0  0  0  0  0
    1.0104   -7.0556   35.8951 N   0  0  0  0  0  0  0  0  0  0  0  0
    1.4031   -7.5965   37.1029 N   0  0  0  0  0  0  0  0  0  0  0  0
    0.8418   -6.9058   38.0775 C   0  0  0  0  0  0  0  0  0  0  0  0
    1.0186   -7.1159   39.4994 C   0  0  0  0  0  0  0  0  0  0  0  0
    0.3419   -8.1344   40.1599 C   0  0  0  0  0  0  0  0  0  0  0  0
    0.5297   -8.3132   41.5236 C   0  0  0  0  0  0  0  0  0  0  0  0
    1.3913   -7.4560   42.1892 C   0  0  0  0  0  0  0  0  0  0  0  0
    2.0720   -6.4597   41.5838 N   0  0  0  0  0  0  0  0  0  0  0  0
    1.8813   -6.3239   40.2492 C   0  0  0  0  0  0  0  0  0  0  0  0
  1  2  2  0
  2  3  1  0
  3  4  1  0
  4  5  1  0
  5  6  1  0
  6  7  1  0
  7  8  2  0
  8  9  1  0
  9 10  1  0
 10 11  1  0
 11 12  1  0
 10 13  1  0
 13 14  1  0
 14 15  2  0
 15 16  1  0
 16 17  1  0
  9 18  2  0
 18 19  1  0
 19 20  2  0
 20 21  1  0
 21 22  2  0
 22 23  1  0
  5 24  2  0
 24 25  1  0
 25 26  2  0
 26 27  1  0
 27 28  2  0
 28 29  1  0
 29 30  2  0
 30 31  1  0
 31 32  2  0
 26  4  1  0
 32 27  1  0
 23  7  1  0
 17 13  2  0
 23 19  1  0
M  END
>  <SLURM_JOB_ID>  (116) 
350558

>  <original SMILES>  (116) 
C=CCn1c(Sc2cc(N(CO)c3cn[nH]c3)cc3nncn23)nnc1-c1cccnc1

>  <tags>  (116) 
Fragmenstein placed

>  <inchikey>  (116) 
VJZOFQMADYWZRE-UHFFFAOYSA-N

>  <scratch_subdir>  (116) 
/opt/xchem-fragalysis-2/maxwin/BulkDock/SCRATCH/350558/C1217-P158

>  <name>  (116) 
VJZOFQMADYWZRE-UHFFFAOYSA-N

>  <energy_score>  (116) 
-56.601934

>  <fragmenstein_error>  (116) 
None

>  <csv_name>  (116) 
D68EV3C_iter1_fstein_split1000_batch000.csv

>  <fragmenstein_mode>  (116) 
expansion

>  <HIPPO Compound ID>  (116) 
1217

>  <HIPPO Pose ID>  (116) 
7327

>  <ref_mols>  (116) 
B0875a,B1307a

>  <fragmenstein_runtime>  (116) 
4.887585

>  <fragmenstein_outcome>  (116) 
acceptable

>  <distance_score>  (116) 
0.952548

>  <score_inspiration>  (116) 
0.420622

>  <original ID>  (116) 
VJZOFQMADYWZRE-UHFFFAOYSA-N

>  <ref_pdb>  (116) 
B0875a

>  <alias>  (116) 
None

$$$$
7385
     RDKit          3D

 30 34  0  0  0  0  0  0  0  0999 V2000
    2.9021   -8.0580   37.7792 O   0  0  0  0  0  0  0  0  0  0  0  0
    1.8133   -7.4986   37.7311 C   0  0  0  0  0  0  0  0  0  0  0  0
    1.1028   -7.3968   36.5401 N   0  0  0  0  0  0  0  0  0  0  0  0
    0.0910   -6.5962   36.5045 C   0  0  0  0  0  0  0  0  0  0  0  0
   -1.0355   -6.7303   35.1911 S   0  0  0  0  0  0  0  0  0  0  0  0
   -0.2813   -6.3975   33.6770 C   0  0  0  0  0  0  0  0  0  0  0  0
    0.5075   -5.3307   33.4341 C   0  0  0  0  0  0  0  0  0  0  0  0
    0.7981   -4.9561   32.0325 C   0  0  0  0  0  0  0  0  0  0  0  0
    1.2557   -3.5641   31.7014 C   0  0  0  0  0  0  0  0  0  0  0  0
    0.4777   -2.5823   32.4493 N   0  0  0  0  0  0  0  0  0  0  0  0
   -1.0928   -2.2020   31.9946 S   0  0  0  0  0  0  0  0  0  0  0  0
   -1.8273   -3.4104   31.6868 O   0  0  0  0  0  0  0  0  0  0  0  0
   -1.5619   -1.2679   32.9967 O   0  0  0  0  0  0  0  0  0  0  0  0
   -1.0038   -1.2611   30.5325 C   0  0  0  0  0  0  0  0  0  0  0  0
   -0.5776    0.0531   30.5159 C   0  0  0  0  0  0  0  0  0  0  0  0
   -0.6100    0.6531   28.9113 S   0  0  0  0  0  0  0  0  0  0  0  0
   -1.1895   -0.8692   28.3740 C   0  0  0  0  0  0  0  0  0  0  0  0
   -1.2989   -1.8025   29.2935 N   0  0  0  0  0  0  0  0  0  0  0  0
    0.4717   -5.7779   31.0131 C   0  0  0  0  0  0  0  0  0  0  0  0
   -0.2795   -6.9416   31.2724 C   0  0  0  0  0  0  0  0  0  0  0  0
   -0.8082   -7.8390   30.4725 N   0  0  0  0  0  0  0  0  0  0  0  0
   -1.5932   -8.6582   31.2363 N   0  0  0  0  0  0  0  0  0  0  0  0
   -1.5378   -8.2272   32.4718 C   0  0  0  0  0  0  0  0  0  0  0  0
   -0.6807   -7.1697   32.5761 N   0  0  0  0  0  0  0  0  0  0  0  0
   -0.3524   -5.7343   37.4764 N   0  0  0  0  0  0  0  0  0  0  0  0
    0.1031   -6.0071   38.7107 C   0  0  0  0  0  0  0  0  0  0  0  0
   -0.3950   -5.5064   39.9293 C   0  0  0  0  0  0  0  0  0  0  0  0
    0.2918   -6.0521   40.9947 C   0  0  0  0  0  0  0  0  0  0  0  0
    1.5206   -7.1443   40.4888 S   0  0  0  0  0  0  0  0  0  0  0  0
    1.1422   -6.8862   38.8590 C   0  0  0  0  0  0  0  0  0  0  0  0
  1  2  2  0
  2  3  1  0
  3  4  2  0
  4  5  1  0
  5  6  1  0
  6  7  2  0
  7  8  1  0
  8  9  1  0
  9 10  1  0
 10 11  1  0
 11 12  2  0
 11 13  2  0
 11 14  1  0
 14 15  2  0
 15 16  1  0
 16 17  1  0
 17 18  2  0
  8 19  2  0
 19 20  1  0
 20 21  2  0
 21 22  1  0
 22 23  2  0
 23 24  1  0
  4 25  1  0
 25 26  1  0
 26 27  1  0
 27 28  2  0
 28 29  1  0
 29 30  1  0
 30  2  1  0
 24  6  1  0
 30 26  2  0
 18 14  1  0
 24 20  1  0
M  END
>  <SLURM_JOB_ID>  (117) 
350558

>  <original SMILES>  (117) 
O=c1nc(Sc2cc(CNS(=O)(=O)c3cscn3)cc3nncn23)[nH]c2ccsc12

>  <tags>  (117) 
Fragmenstein placed

>  <inchikey>  (117) 
KYDQQDPGRJONDS-UHFFFAOYSA-N

>  <scratch_subdir>  (117) 
/opt/xchem-fragalysis-2/maxwin/BulkDock/SCRATCH/350558/C1279-P164

>  <name>  (117) 
KYDQQDPGRJONDS-UHFFFAOYSA-N

>  <energy_score>  (117) 
-78.082462

>  <fragmenstein_error>  (117) 
None

>  <csv_name>  (117) 
D68EV3C_iter1_fstein_split1000_batch000.csv

>  <fragmenstein_mode>  (117) 
expansion

>  <HIPPO Compound ID>  (117) 
1279

>  <HIPPO Pose ID>  (117) 
7385

>  <ref_mols>  (117) 
B0931a,B1456a

>  <fragmenstein_runtime>  (117) 
3.178903

>  <fragmenstein_outcome>  (117) 
acceptable

>  <distance_score>  (117) 
0.907106

>  <score_inspiration>  (117) 
0.60378

>  <original ID>  (117) 
KYDQQDPGRJONDS-UHFFFAOYSA-N

>  <ref_pdb>  (117) 
B0931a

>  <alias>  (117) 
None

$$$$
7386
     RDKit          3D

 30 34  0  0  0  0  0  0  0  0999 V2000
    2.9262   -7.9877   37.7119 O   0  0  0  0  0  0  0  0  0  0  0  0
    1.8299   -7.4442   37.6549 C   0  0  0  0  0  0  0  0  0  0  0  0
    1.1236   -7.3567   36.4599 N   0  0  0  0  0  0  0  0  0  0  0  0
    0.1125   -6.5553   36.4103 C   0  0  0  0  0  0  0  0  0  0  0  0
   -1.0114   -6.7084   35.0934 S   0  0  0  0  0  0  0  0  0  0  0  0
   -0.2646   -6.3551   33.5786 C   0  0  0  0  0  0  0  0  0  0  0  0
    0.5113   -5.2773   33.3432 C   0  0  0  0  0  0  0  0  0  0  0  0
    0.7954   -4.8901   31.9434 C   0  0  0  0  0  0  0  0  0  0  0  0
    1.2121   -3.4845   31.6194 C   0  0  0  0  0  0  0  0  0  0  0  0
    0.4030   -2.5282   32.3671 N   0  0  0  0  0  0  0  0  0  0  0  0
   -1.1881   -2.2089   31.9328 S   0  0  0  0  0  0  0  0  0  0  0  0
   -1.8862   -3.4432   31.6433 O   0  0  0  0  0  0  0  0  0  0  0  0
   -1.6713   -1.2835   32.9362 O   0  0  0  0  0  0  0  0  0  0  0  0
   -1.1682   -1.2795   30.4603 C   0  0  0  0  0  0  0  0  0  0  0  0
   -0.7038    0.0206   30.4061 C   0  0  0  0  0  0  0  0  0  0  0  0
   -0.8167    0.6089   28.8004 S   0  0  0  0  0  0  0  0  0  0  0  0
   -1.4667   -0.9015   28.3091 C   0  0  0  0  0  0  0  0  0  0  0  0
   -1.5738   -1.8152   29.2489 N   0  0  0  0  0  0  0  0  0  0  0  0
    0.4917   -5.7135   30.9183 C   0  0  0  0  0  0  0  0  0  0  0  0
   -0.2413   -6.8898   31.1691 C   0  0  0  0  0  0  0  0  0  0  0  0
   -0.7431   -7.7974   30.3626 N   0  0  0  0  0  0  0  0  0  0  0  0
   -1.5295   -8.6240   31.1151 N   0  0  0  0  0  0  0  0  0  0  0  0
   -1.5009   -8.1847   32.3492 C   0  0  0  0  0  0  0  0  0  0  0  0
   -0.6510   -7.1244   32.4693 N   0  0  0  0  0  0  0  0  0  0  0  0
   -0.3320   -5.6814   37.3722 N   0  0  0  0  0  0  0  0  0  0  0  0
    0.1120   -5.9496   38.6129 C   0  0  0  0  0  0  0  0  0  0  0  0
   -0.3960   -5.4441   39.8261 C   0  0  0  0  0  0  0  0  0  0  0  0
    0.2768   -5.9910   40.9002 C   0  0  0  0  0  0  0  0  0  0  0  0
    1.5071   -7.0884   40.4092 S   0  0  0  0  0  0  0  0  0  0  0  0
    1.1473   -6.8308   38.7751 C   0  0  0  0  0  0  0  0  0  0  0  0
  1  2  2  0
  2  3  1  0
  3  4  2  0
  4  5  1  0
  5  6  1  0
  6  7  2  0
  7  8  1  0
  8  9  1  0
  9 10  1  0
 10 11  1  0
 11 12  2  0
 11 13  2  0
 11 14  1  0
 14 15  2  0
 15 16  1  0
 16 17  1  0
 17 18  2  0
  8 19  2  0
 19 20  1  0
 20 21  2  0
 21 22  1  0
 22 23  2  0
 23 24  1  0
  4 25  1  0
 25 26  1  0
 26 27  1  0
 27 28  2  0
 28 29  1  0
 29 30  1  0
 30  2  1  0
 24  6  1  0
 30 26  2  0
 18 14  1  0
 24 20  1  0
M  END
>  <SLURM_JOB_ID>  (118) 
350558

>  <original SMILES>  (118) 
O=c1nc(Sc2cc(CNS(=O)(=O)c3cscn3)cc3nncn23)[nH]c2ccsc12

>  <tags>  (118) 
Fragmenstein placed

>  <inchikey>  (118) 
KYDQQDPGRJONDS-UHFFFAOYSA-N

>  <scratch_subdir>  (118) 
/opt/xchem-fragalysis-2/maxwin/BulkDock/SCRATCH/350558/C1279-P194

>  <name>  (118) 
KYDQQDPGRJONDS-UHFFFAOYSA-N

>  <energy_score>  (118) 
-77.268421

>  <fragmenstein_error>  (118) 
None

>  <csv_name>  (118) 
D68EV3C_iter1_fstein_split1000_batch000.csv

>  <fragmenstein_mode>  (118) 
expansion

>  <HIPPO Compound ID>  (118) 
1279

>  <HIPPO Pose ID>  (118) 
7386

>  <ref_mols>  (118) 
B0931a,B1456a

>  <fragmenstein_runtime>  (118) 
3.12458

>  <fragmenstein_outcome>  (118) 
acceptable

>  <distance_score>  (118) 
0.919092

>  <score_inspiration>  (118) 
0.604405

>  <original ID>  (118) 
KYDQQDPGRJONDS-UHFFFAOYSA-N

>  <ref_pdb>  (118) 
B1456a

>  <alias>  (118) 
None

$$$$
7387
     RDKit          3D

 33 37  0  0  0  0  0  0  0  0999 V2000
   -0.7150    1.8312   27.4063 N   0  0  0  0  0  0  0  0  0  0  0  0
   -0.8143    0.8445   28.3832 C   0  0  0  0  0  0  0  0  0  0  0  0
   -1.2409   -0.4364   28.0677 C   0  0  0  0  0  0  0  0  0  0  0  0
   -1.3834   -1.3840   29.0804 C   0  0  0  0  0  0  0  0  0  0  0  0
   -1.1292   -0.9921   30.3845 C   0  0  0  0  0  0  0  0  0  0  0  0
   -1.3860   -2.0378   31.7656 S   0  0  0  0  0  0  0  0  0  0  0  0
   -2.1062   -3.2271   31.3696 O   0  0  0  0  0  0  0  0  0  0  0  0
   -1.8385   -1.2163   32.8658 O   0  0  0  0  0  0  0  0  0  0  0  0
    0.1733   -2.4947   32.1503 N   0  0  0  0  0  0  0  0  0  0  0  0
    1.0383   -3.0635   31.1141 C   0  0  0  0  0  0  0  0  0  0  0  0
    1.9097   -4.1469   31.7483 C   0  0  0  0  0  0  0  0  0  0  0  0
    1.1034   -5.3585   32.0800 C   0  0  0  0  0  0  0  0  0  0  0  0
    0.6424   -5.5701   33.4603 C   0  0  0  0  0  0  0  0  0  0  0  0
   -0.2769   -6.5261   33.6979 C   0  0  0  0  0  0  0  0  0  0  0  0
   -1.0808   -6.8268   35.1860 S   0  0  0  0  0  0  0  0  0  0  0  0
   -0.1609   -6.3444   36.5543 C   0  0  0  0  0  0  0  0  0  0  0  0
    0.4036   -7.2673   37.2630 N   0  0  0  0  0  0  0  0  0  0  0  0
    0.7249   -6.8483   38.5566 C   0  0  0  0  0  0  0  0  0  0  0  0
    1.0750   -7.7341   39.5981 C   0  0  0  0  0  0  0  0  0  0  0  0
    1.1821   -7.0559   40.7965 C   0  0  0  0  0  0  0  0  0  0  0  0
    0.8669   -5.3718   40.6236 S   0  0  0  0  0  0  0  0  0  0  0  0
    0.5600   -5.5545   38.9709 C   0  0  0  0  0  0  0  0  0  0  0  0
    0.0818   -4.5233   38.0967 C   0  0  0  0  0  0  0  0  0  0  0  0
   -0.0386   -3.3302   38.3567 O   0  0  0  0  0  0  0  0  0  0  0  0
   -0.2903   -5.0200   36.8682 N   0  0  0  0  0  0  0  0  0  0  0  0
   -0.7139   -7.2880   32.6009 N   0  0  0  0  0  0  0  0  0  0  0  0
   -1.6539   -8.2709   32.4985 C   0  0  0  0  0  0  0  0  0  0  0  0
   -1.7328   -8.7086   31.2682 N   0  0  0  0  0  0  0  0  0  0  0  0
   -0.8652   -7.9825   30.5059 N   0  0  0  0  0  0  0  0  0  0  0  0
   -0.2484   -7.1491   31.3083 C   0  0  0  0  0  0  0  0  0  0  0  0
    0.7031   -6.1482   31.0651 C   0  0  0  0  0  0  0  0  0  0  0  0
   -0.6837    0.2928   30.6150 C   0  0  0  0  0  0  0  0  0  0  0  0
   -0.4955    1.2047   29.6353 N   0  0  0  0  0  0  0  0  0  0  0  0
  1  2  1  0
  2  3  2  0
  3  4  1  0
  4  5  2  0
  5  6  1  0
  6  7  2  0
  6  8  2  0
  6  9  1  0
  9 10  1  0
 10 11  1  0
 11 12  1  0
 12 13  1  0
 13 14  2  0
 14 15  1  0
 15 16  1  0
 16 17  2  0
 17 18  1  0
 18 19  1  0
 19 20  2  0
 20 21  1  0
 21 22  1  0
 22 23  1  0
 23 24  2  0
 23 25  1  0
 14 26  1  0
 26 27  1  0
 27 28  2  0
 28 29  1  0
 29 30  2  0
 30 31  1  0
  5 32  1  0
 32 33  2  0
 33  2  1  0
 31 12  2  0
 25 16  1  0
 30 26  1  0
 22 18  2  0
M  END
>  <SLURM_JOB_ID>  (119) 
350558

>  <original SMILES>  (119) 
Nc1ccc(S(=O)(=O)NCCc2cc(Sc3nc4ccsc4c(=O)[nH]3)n3cnnc3c2)cn1

>  <tags>  (119) 
Fragmenstein placed

>  <inchikey>  (119) 
GCWXMZUOJLEQBP-UHFFFAOYSA-N

>  <scratch_subdir>  (119) 
/opt/xchem-fragalysis-2/maxwin/BulkDock/SCRATCH/350558/C1280-P164

>  <name>  (119) 
GCWXMZUOJLEQBP-UHFFFAOYSA-N

>  <energy_score>  (119) 
-80.114978

>  <fragmenstein_error>  (119) 
None

>  <csv_name>  (119) 
D68EV3C_iter1_fstein_split1000_batch000.csv

>  <fragmenstein_mode>  (119) 
expansion

>  <HIPPO Compound ID>  (119) 
1280

>  <HIPPO Pose ID>  (119) 
7387

>  <ref_mols>  (119) 
B0931a,B1457a

>  <fragmenstein_runtime>  (119) 
5.259015

>  <fragmenstein_outcome>  (119) 
acceptable

>  <distance_score>  (119) 
0.859299

>  <score_inspiration>  (119) 
0.541955

>  <original ID>  (119) 
GCWXMZUOJLEQBP-UHFFFAOYSA-N

>  <ref_pdb>  (119) 
B0931a

>  <alias>  (119) 
None

$$$$
7389
     RDKit          3D

 27 30  0  0  0  0  0  0  0  0999 V2000
   -0.7618    0.4667   29.8180 C   0  0  0  0  0  0  0  0  0  0  0  0
   -0.4405   -0.9611   29.4326 C   0  0  0  0  0  0  0  0  0  0  0  0
   -1.1425   -1.8155   30.3547 O   0  0  0  0  0  0  0  0  0  0  0  0
   -0.8603   -3.1244   30.5443 C   0  0  0  0  0  0  0  0  0  0  0  0
   -1.4927   -3.7806   31.3674 O   0  0  0  0  0  0  0  0  0  0  0  0
    0.2607   -3.6931   29.7523 C   0  0  0  0  0  0  0  0  0  0  0  0
    1.0067   -4.7438   30.1451 C   0  0  0  0  0  0  0  0  0  0  0  0
    0.7898   -5.4861   31.3722 C   0  0  0  0  0  0  0  0  0  0  0  0
    1.2260   -4.9984   32.5575 C   0  0  0  0  0  0  0  0  0  0  0  0
    0.7903   -5.5520   33.8382 C   0  0  0  0  0  0  0  0  0  0  0  0
   -0.1367   -6.5295   33.8503 C   0  0  0  0  0  0  0  0  0  0  0  0
   -0.8936   -7.1921   35.2430 S   0  0  0  0  0  0  0  0  0  0  0  0
   -0.2330   -6.5186   36.6819 C   0  0  0  0  0  0  0  0  0  0  0  0
    0.4312   -7.3082   37.4601 N   0  0  0  0  0  0  0  0  0  0  0  0
    0.6083   -6.7974   38.7453 C   0  0  0  0  0  0  0  0  0  0  0  0
    1.0524   -7.5742   39.8352 C   0  0  0  0  0  0  0  0  0  0  0  0
    1.0127   -6.8366   41.0017 C   0  0  0  0  0  0  0  0  0  0  0  0
    0.4465   -5.2305   40.7401 S   0  0  0  0  0  0  0  0  0  0  0  0
    0.2216   -5.5317   39.0920 C   0  0  0  0  0  0  0  0  0  0  0  0
   -0.3818   -4.6292   38.1542 C   0  0  0  0  0  0  0  0  0  0  0  0
   -0.6942   -3.4589   38.3496 O   0  0  0  0  0  0  0  0  0  0  0  0
   -0.6174   -5.2310   36.9382 N   0  0  0  0  0  0  0  0  0  0  0  0
   -0.5408   -7.0596   32.6136 N   0  0  0  0  0  0  0  0  0  0  0  0
   -1.4216   -8.0600   32.2939 C   0  0  0  0  0  0  0  0  0  0  0  0
   -1.4276   -8.2760   31.0014 N   0  0  0  0  0  0  0  0  0  0  0  0
   -0.5662   -7.3791   30.4288 N   0  0  0  0  0  0  0  0  0  0  0  0
   -0.0616   -6.6323   31.3902 C   0  0  0  0  0  0  0  0  0  0  0  0
  1  2  1  0
  2  3  1  0
  3  4  1  0
  4  5  2  0
  4  6  1  0
  6  7  2  3
  7  8  1  0
  8  9  2  0
  9 10  1  0
 10 11  2  0
 11 12  1  0
 12 13  1  0
 13 14  2  0
 14 15  1  0
 15 16  1  0
 16 17  2  0
 17 18  1  0
 18 19  1  0
 19 20  1  0
 20 21  2  0
 20 22  1  0
 11 23  1  0
 23 24  1  0
 24 25  2  0
 25 26  1  0
 26 27  2  0
 27  8  1  0
 22 13  1  0
 27 23  1  0
 19 15  2  0
M  END
>  <SLURM_JOB_ID>  (120) 
350558

>  <original SMILES>  (120) 
CCOC(=O)C=Cc1ccc(Sc2nc3ccsc3c(=O)[nH]2)n2cnnc12

>  <tags>  (120) 
Fragmenstein placed

>  <inchikey>  (120) 
CVZDESQUASFGEF-UHFFFAOYSA-N

>  <scratch_subdir>  (120) 
/opt/xchem-fragalysis-2/maxwin/BulkDock/SCRATCH/350558/C1281-P164

>  <name>  (120) 
CVZDESQUASFGEF-UHFFFAOYSA-N

>  <energy_score>  (120) 
-32.625927

>  <fragmenstein_error>  (120) 
None

>  <csv_name>  (120) 
D68EV3C_iter1_fstein_split1000_batch000.csv

>  <fragmenstein_mode>  (120) 
expansion

>  <HIPPO Compound ID>  (120) 
1281

>  <HIPPO Pose ID>  (120) 
7389

>  <ref_mols>  (120) 
B0931a,B1460a

>  <fragmenstein_runtime>  (120) 
3.421597

>  <fragmenstein_outcome>  (120) 
acceptable

>  <distance_score>  (120) 
0.845398

>  <score_inspiration>  (120) 
0.553646

>  <original ID>  (120) 
CVZDESQUASFGEF-UHFFFAOYSA-N

>  <ref_pdb>  (120) 
B0931a

>  <alias>  (120) 
None

$$$$
