D68EV3CPROB-x0875_C_208_1_7gp9+A+201+1__LIG
     RDKit          3D

 18 20  0  0  0  0  0  0  0  0999 V2000
    0.6140   -7.6840   35.6120 O   0  0  0  0  0  0  0  0  0  0  0  0
    0.2880   -6.5460   35.9520 C   0  0  0  0  0  0  0  0  0  0  0  0
    0.1880   -6.1820   37.2980 N   0  0  0  0  0  0  0  0  0  0  0  0
    0.5530   -7.0650   38.3300 C   0  0  0  0  0  0  0  0  0  0  0  0
   -0.0790   -7.3040   39.5160 C   0  0  0  0  0  0  0  0  0  0  0  0
    0.6050   -8.2670   40.1400 N   0  0  0  0  0  0  0  0  0  0  0  0
    1.6720   -8.6700   39.4190 N   0  0  0  0  0  0  0  0  0  0  0  0
    1.6500   -7.9320   38.3150 C   0  0  0  0  0  0  0  0  0  0  0  0
   -0.3420   -5.6850   35.0680 N   0  0  0  0  0  0  0  0  0  0  0  0
   -0.1100   -5.7480   33.6980 C   0  0  0  0  0  0  0  0  0  0  0  0
   -0.8070   -6.7280   33.0120 N   0  0  0  0  0  0  0  0  0  0  0  0
   -1.6850   -7.6920   33.4170 C   0  0  0  0  0  0  0  0  0  0  0  0
   -2.0720   -8.4210   32.4090 N   0  0  0  0  0  0  0  0  0  0  0  0
   -1.4350   -7.9310   31.2660 N   0  0  0  0  0  0  0  0  0  0  0  0
   -0.6760   -6.9090   31.6420 C   0  0  0  0  0  0  0  0  0  0  0  0
    0.2020   -6.0510   30.9340 C   0  0  0  0  0  0  0  0  0  0  0  0
    0.8940   -5.0850   31.6030 C   0  0  0  0  0  0  0  0  0  0  0  0
    0.7510   -4.9160   32.9940 C   0  0  0  0  0  0  0  0  0  0  0  0
  2  1  2  0
  3  2  1  0
  4  3  1  0
  4  8  1  0
  8  7  2  0
  7  6  1  0
  6  5  1  0
  5  4  2  0
  9  2  1  0
 10  9  1  0
 10 18  2  0
 18 17  1  0
 17 16  2  0
 16 15  1  0
 15 14  2  0
 14 13  1  0
 13 12  2  0
 12 11  1  0
 11 10  1  0
 15 11  1  0
M  END
$$$$
