7gou_A_201_1_D68EV3CPROB-x1120+A+308+1__LIG
     RDKit          3D

 12 12  0  0  0  0  0  0  0  0999 V2000
  -12.0350  -24.4440   27.8510 C   0  0  0  0  0  0  0  0  0  0  0  0
  -12.2580  -23.7910   29.0510 C   0  0  0  0  0  0  0  0  0  0  0  0
  -11.7750  -24.3330   30.2330 C   0  0  0  0  0  0  0  0  0  0  0  0
  -10.6900  -23.8120   32.7620 C   0  0  0  0  0  0  0  0  0  0  0  0
  -10.7530  -26.1850   31.3890 N   0  0  0  0  0  0  0  0  0  0  0  0
   -9.6420  -27.1020   31.4790 C   0  0  0  0  0  0  0  0  0  0  0  0
  -11.7640  -21.9610   31.3030 O   0  0  0  0  0  0  0  0  0  0  0  0
  -11.0920  -25.5650   30.2280 C   0  0  0  0  0  0  0  0  0  0  0  0
  -10.8600  -26.1840   28.9990 C   0  0  0  0  0  0  0  0  0  0  0  0
  -11.3300  -25.6230   27.8250 C   0  0  0  0  0  0  0  0  0  0  0  0
  -13.2360  -23.6660   32.2970 O   0  0  0  0  0  0  0  0  0  0  0  0
  -11.9810  -23.3300   31.6810 S   0  0  0  0  0  0  0  0  0  0  0  0
  1  2  2  0
  1 10  1  0
  2  3  1  0
  7 12  2  0
 10  9  2  0
  3 12  1  0
  3  8  2  0
 12 11  2  0
 12  4  1  0
  9  8  1  0
  8  5  1  0
  5  6  1  0
M  END
$$$$
