7go1_B_201_1_7gpw+B+202+1_ALIG
     RDKit          3D

 13 13  0  0  0  0  0  0  0  0999 V2000
   -7.9230   -3.0150    6.7400 C   0  0  0  0  0  0  0  0  0  0  0  0
   -9.2340   -3.7490    6.7530 C   0  0  0  0  0  0  0  0  0  0  0  0
   -7.7590   -1.8440    7.4720 C   0  0  0  0  0  0  0  0  0  0  0  0
   -6.5250   -1.2410    7.5020 C   0  0  0  0  0  0  0  0  0  0  0  0
  -11.6970   -2.7730    6.4940 N   0  0  0  0  0  0  0  0  0  0  0  0
   -4.0450   -1.1250    7.0020 C   0  0  0  0  0  0  0  0  0  0  0  0
  -10.7360   -4.0680    4.6400 O   0  0  0  0  0  0  0  0  0  0  0  0
   -5.4150   -1.7320    6.8510 C   0  0  0  0  0  0  0  0  0  0  0  0
   -5.6090   -2.8840    6.0930 C   0  0  0  0  0  0  0  0  0  0  0  0
   -6.8390   -3.5120    6.0370 C   0  0  0  0  0  0  0  0  0  0  0  0
   -6.3980   -0.0890    8.1960 F   0  0  0  0  0  0  0  0  0  0  0  0
   -9.8850   -1.8050    5.1460 O   0  0  0  0  0  0  0  0  0  0  0  0
  -10.4050   -3.0570    5.5930 S   0  0  0  0  0  0  0  0  0  0  0  0
  6  8  1  0
  8  9  2  0
  9 10  1  0
 10  1  2  0
  2  1  1  0
 13  2  1  0
  7 13  2  0
 12 13  2  0
  5 13  1  0
  1  3  1  0
  3  4  2  0
  8  4  1  0
  4 11  1  0
M  END
$$$$
7go1_B_201_1_7gpw+B+202+1_BLIG
     RDKit          3D

 13 13  0  0  0  0  0  0  0  0999 V2000
   -7.9180   -2.7670    6.8070 C   0  0  0  0  0  0  0  0  0  0  0  0
   -9.2000   -3.5430    6.7060 C   0  0  0  0  0  0  0  0  0  0  0  0
   -6.7900   -3.1610    6.0940 C   0  0  0  0  0  0  0  0  0  0  0  0
   -5.6000   -2.5110    6.3130 C   0  0  0  0  0  0  0  0  0  0  0  0
  -11.7740   -2.8350    6.6500 N   0  0  0  0  0  0  0  0  0  0  0  0
   -4.0910   -0.9150    7.5630 C   0  0  0  0  0  0  0  0  0  0  0  0
  -10.6390   -3.3520    4.5340 O   0  0  0  0  0  0  0  0  0  0  0  0
   -5.4440   -1.4760    7.2080 C   0  0  0  0  0  0  0  0  0  0  0  0
   -6.5940   -1.0570    7.8680 C   0  0  0  0  0  0  0  0  0  0  0  0
   -7.8070   -1.6920    7.6750 C   0  0  0  0  0  0  0  0  0  0  0  0
   -4.5100   -2.9110    5.6190 F   0  0  0  0  0  0  0  0  0  0  0  0
  -10.0920   -1.2820    5.7630 O   0  0  0  0  0  0  0  0  0  0  0  0
  -10.4460   -2.6640    5.7710 S   0  0  0  0  0  0  0  0  0  0  0  0
  6  8  1  0
  8  9  2  0
  9 10  1  0
 10  1  2  0
  2  1  1  0
 13  2  1  0
  7 13  2  0
 12 13  2  0
  5 13  1  0
  1  3  1  0
  3  4  2  0
  8  4  1  0
  4 11  1  0
M  END
$$$$
