7gok-a
     RDKit          3D

 12 13  0  0  0  0  0  0  0  0999 V2000
    1.2450   -7.0680   27.8270 C   0  0  0  0  0  0  0  0  0  0  0  0
   -1.3550   -5.4590   33.2780 N   0  0  0  0  0  0  0  0  0  0  0  0
   -0.7950   -6.3530   32.4720 C   0  0  0  0  0  0  0  0  0  0  0  0
   -0.7730   -7.5680   32.7280 O   0  0  0  0  0  0  0  0  0  0  0  0
   -0.1580   -5.8550   31.2080 C   0  0  0  0  0  0  0  0  0  0  0  0
    0.2360   -4.5140   31.0620 C   0  0  0  0  0  0  0  0  0  0  0  0
    0.8420   -4.0670   29.8980 C   0  0  0  0  0  0  0  0  0  0  0  0
    1.0730   -4.9820   28.8820 C   0  0  0  0  0  0  0  0  0  0  0  0
    1.6260   -4.7480   27.6310 N   0  0  0  0  0  0  0  0  0  0  0  0
    1.6000   -5.9510   26.8150 C   0  0  0  0  0  0  0  0  0  0  0  0
    0.7250   -6.3180   29.0150 C   0  0  0  0  0  0  0  0  0  0  0  0
    0.0840   -6.7500   30.1680 C   0  0  0  0  0  0  0  0  0  0  0  0
  3  2  1  0
  4  3  2  0
  5  3  1  0
  6  5  1  0
  7  6  2  0
  8  7  1  0
  9  8  1  0
 10  1  2  0
 10  9  1  0
 11  1  1  0
 11  8  2  0
 12 11  1  0
 12  5  2  0
M  END
>  <id>  (1) 
40

>  <inchikey>  (1) 
GQMYQEAXTITUAE-UHFFFAOYSA-N

>  <alias>  (1) 
7gok-a

>  <smiles>  (1) 
NC(=O)c1ccc2[nH]ccc2c1

>  <path>  (1) 
/opt/xchem-fragalysis-2/maxwin/BulkDock/TARGETS/D68EV3C/aligned_files/7gok-a/7gok-a.pdb

>  <distance_score>  (1) 
None

>  <energy_score>  (1) 
None

>  <compound>  (1) 
GQMYQEAXTITUAE-UHFFFAOYSA-N

>  <compound_id>  (1) 
32

>  <target>  (1) 
D68EV3C

$$$$
7gp2-a
     RDKit          3D

 11 11  0  0  0  0  0  0  0  0999 V2000
   -1.2210    1.4250   28.4530 N   0  0  0  0  0  0  0  0  0  0  0  0
   -1.7560    3.3480   26.3680 C   0  0  2  0  0  0  0  0  0  0  0  0
   -2.6070    2.1140   26.5440 C   0  0  0  0  0  0  0  0  0  0  0  0
   -1.7900    0.9890   27.1630 C   0  0  0  0  0  0  0  0  0  0  0  0
    0.5030   -0.6830   28.4890 C   0  0  0  0  0  0  0  0  0  0  0  0
   -0.6660    0.2330   29.4230 S   0  0  1  0  0  0  0  0  0  0  0  0
    0.0210    0.8620   30.5070 O   0  0  0  0  0  0  0  0  0  0  0  0
   -1.7780   -0.6160   29.7160 O   0  0  0  0  0  0  0  0  0  0  0  0
   -0.3730    2.6250   28.3190 C   0  0  0  0  0  0  0  0  0  0  0  0
   -1.1750    3.7640   27.7000 C   0  0  0  0  0  0  0  0  0  0  0  0
   -2.5260    4.4020   25.7890 O   0  0  0  0  0  0  0  0  0  0  0  0
  3  2  1  0
  4  3  1  0
  4  1  1  0
  6  5  1  6
  6  1  1  0
  7  6  2  0
  8  6  2  0
  9  1  1  0
 10  2  1  0
 10  9  1  0
  2 11  1  1
M  END
>  <id>  (2) 
44

>  <inchikey>  (2) 
UPEFDWJLNXWMOW-UHFFFAOYSA-N

>  <alias>  (2) 
7gp2-a

>  <smiles>  (2) 
CS(=O)(=O)N1CCC(O)CC1

>  <path>  (2) 
/opt/xchem-fragalysis-2/maxwin/BulkDock/TARGETS/D68EV3C/aligned_files/7gp2-a/7gp2-a.pdb

>  <distance_score>  (2) 
None

>  <energy_score>  (2) 
None

>  <compound>  (2) 
UPEFDWJLNXWMOW-UHFFFAOYSA-N

>  <compound_id>  (2) 
36

>  <target>  (2) 
D68EV3C

$$$$
