7goy-a
     RDKit          3D

 14 14  0  0  0  0  0  0  0  0999 V2000
   -1.1070    0.0340   31.3590 N   0  0  0  0  0  0  0  0  0  0  0  0
   -1.8670   -0.9920   31.0400 C   0  0  0  0  0  0  0  0  0  0  0  0
   -1.7140   -1.3620   29.6890 C   0  0  0  0  0  0  0  0  0  0  0  0
   -0.8050   -0.5060   29.1970 C   0  0  0  0  0  0  0  0  0  0  0  0
   -0.1370   -0.3500   27.8790 C   0  0  0  0  0  0  0  0  0  0  0  0
   -3.0260   -0.8940   33.1310 N   0  0  0  0  0  0  0  0  0  0  0  0
   -7.2220   -0.9230   35.3990 C   0  0  0  0  0  0  0  0  0  0  0  0
   -5.7760   -0.9880   35.4310 O   0  0  0  0  0  0  0  0  0  0  0  0
   -5.1420   -0.6870   34.3080 C   0  0  0  0  0  0  0  0  0  0  0  0
   -3.8330   -1.4120   34.2150 C   0  0  0  0  0  0  0  0  0  0  0  0
   -2.7340   -1.6350   32.0570 C   0  0  0  0  0  0  0  0  0  0  0  0
   -5.5530    0.0630   33.5040 O   0  0  0  0  0  0  0  0  0  0  0  0
   -3.1480   -2.7910   31.9080 O   0  0  0  0  0  0  0  0  0  0  0  0
   -0.4170    0.3530   30.1590 O   0  0  0  0  0  0  0  0  0  0  0  0
  2  1  2  0
  3  2  1  0
  4  3  2  0
  5  4  1  0
  8  7  1  0
  9  8  1  0
 10  9  1  0
 10  6  1  0
 11  2  1  0
 11  6  1  0
 12  9  2  0
 13 11  2  0
 14  4  1  0
 14  1  1  0
M  END
>  <id>  (1) 
59

>  <inchikey>  (1) 
FPAQMEYCJIMDCC-UHFFFAOYSA-N

>  <alias>  (1) 
7goy-a

>  <smiles>  (1) 
COC(=O)CNC(=O)c1cc(C)on1

>  <path>  (1) 
/opt/xchem-fragalysis-2/maxwin/BulkDock/TARGETS/D68EV3C/aligned_files/7goy-a/7goy-a.pdb

>  <distance_score>  (1) 
None

>  <energy_score>  (1) 
None

>  <compound>  (1) 
FPAQMEYCJIMDCC-UHFFFAOYSA-N

>  <compound_id>  (1) 
49

>  <target>  (1) 
D68EV3C

$$$$
7gpm-a
     RDKit          3D

 13 14  0  0  0  0  0  0  0  0999 V2000
   -1.9830    2.7580   28.0750 N   0  0  0  0  0  0  0  0  0  0  0  0
   -1.9390    1.6060   27.4720 C   0  0  0  0  0  0  0  0  0  0  0  0
   -1.7120    0.2830   28.1540 C   0  0  2  0  0  0  0  0  0  0  0  0
   -1.8210    0.3710   29.6820 C   0  0  0  0  0  0  0  0  0  0  0  0
   -0.4030    0.7020   30.1340 C   0  0  0  0  0  0  0  0  0  0  0  0
    0.4890    0.0140   29.1060 C   0  0  0  0  0  0  0  0  0  0  0  0
   -2.0140    1.6690   26.1060 N   0  0  0  0  0  0  0  0  0  0  0  0
   -1.3570    2.8430   23.4770 C   0  0  0  0  0  0  0  0  0  0  0  0
   -2.0730    3.6740   27.0040 O   0  0  0  0  0  0  0  0  0  0  0  0
   -2.0240    3.6470   24.5690 C   0  0  1  0  0  0  0  0  0  0  0  0
   -3.4180    4.0310   24.1490 C   0  0  0  0  0  0  0  0  0  0  0  0
   -2.0690    2.9380   25.8820 C   0  0  0  0  0  0  0  0  0  0  0  0
   -0.3650   -0.2580   27.9310 N   0  0  0  0  0  0  0  0  0  0  0  0
  2  1  2  0
  3  2  1  6
  4  3  1  0
  5  4  1  0
  6  5  1  0
  7  2  1  0
  9  1  1  0
 10  8  1  6
 11 10  1  0
 12 10  1  0
 12  9  1  0
 12  7  2  0
 13  6  1  0
 13  3  1  0
M  END
>  <id>  (2) 
70

>  <inchikey>  (2) 
WKTDGUSTKNDUEI-ZETCQYMHSA-N

>  <alias>  (2) 
7gpm-a

>  <smiles>  (2) 
CC(C)c1nc([C@@H]2CCCN2)no1

>  <path>  (2) 
/opt/xchem-fragalysis-2/maxwin/BulkDock/TARGETS/D68EV3C/aligned_files/7gpm-a/7gpm-a.pdb

>  <distance_score>  (2) 
None

>  <energy_score>  (2) 
None

>  <compound>  (2) 
WKTDGUSTKNDUEI-UHFFFAOYSA-N

>  <compound_id>  (2) 
56

>  <target>  (2) 
D68EV3C

$$$$
