7gp9-a
     RDKit          3D

 16 17  0  0  0  0  0  0  0  0999 V2000
    0.6840   -0.0070   28.3420 C   0  0  0  0  0  0  0  0  0  0  0  0
    0.3670    1.2690   27.9040 C   0  0  0  0  0  0  0  0  0  0  0  0
   -0.8920    1.4700   27.3700 C   0  0  0  0  0  0  0  0  0  0  0  0
   -1.7910    0.4380   27.2630 C   0  0  0  0  0  0  0  0  0  0  0  0
   -1.4910   -0.8250   27.7220 C   0  0  0  0  0  0  0  0  0  0  0  0
   -0.9470   -2.9450   29.6400 N   0  0  0  0  0  0  0  0  0  0  0  0
   -2.1700   -0.3300   31.4160 C   0  0  0  0  0  0  0  0  0  0  0  0
    0.3340   -3.3310   31.7260 O   0  0  0  0  0  0  0  0  0  0  0  0
   -0.8360   -1.0060   31.6160 C   0  0  0  0  0  0  0  0  0  0  0  0
    0.1310   -2.4250   28.7870 C   0  0  0  0  0  0  0  0  0  0  0  0
   -0.2320   -1.0560   28.2710 C   0  0  0  0  0  0  0  0  0  0  0  0
   -2.7670    2.2810   26.4600 C   0  0  0  0  0  0  0  0  0  0  0  0
   -2.1420   -3.2780   31.7870 O   0  0  0  0  0  0  0  0  0  0  0  0
   -2.9180    0.8630   26.5970 O   0  0  0  0  0  0  0  0  0  0  0  0
   -1.4630    2.6420   26.9260 O   0  0  0  0  0  0  0  0  0  0  0  0
   -0.9030   -2.7580   31.2800 S   0  0  1  0  0  0  0  0  0  0  0  0
  2  1  2  0
  3  2  1  0
  4  3  2  0
  5  4  1  0
  9  7  1  0
 10  6  1  0
 11 10  1  0
 11  5  2  0
 11  1  1  0
 14 12  1  0
 14  4  1  0
 15 12  1  0
 15  3  1  0
 16 13  2  0
 16  9  1  6
 16  8  2  0
 16  6  1  0
M  END
>  <id>  (1) 
13

>  <inchikey>  (1) 
UKPLBUIFSDRLEZ-UHFFFAOYSA-N

>  <alias>  (1) 
7gp9-a

>  <smiles>  (1) 
CCS(=O)(=O)NCc1ccc2c(c1)OCO2

>  <path>  (1) 
/opt/xchem-fragalysis-2/maxwin/BulkDock/TARGETS/D68EV3C/aligned_files/7gp9-a/7gp9-a.pdb

>  <distance_score>  (1) 
None

>  <energy_score>  (1) 
None

>  <compound>  (1) 
UKPLBUIFSDRLEZ-UHFFFAOYSA-N

>  <compound_id>  (1) 
12

>  <target>  (1) 
D68EV3C

$$$$
B0450a
     RDKit          3D

 20 22  0  0  0  0  0  0  0  0999 V2000
   -1.4050   -7.9820   31.0890 N   0  0  0  0  0  0  0  0  0  0  0  0
    6.2170   -1.1670   33.6830 C   0  0  0  0  0  0  0  0  0  0  0  0
    5.0690   -1.5100   34.4600 O   0  0  0  0  0  0  0  0  0  0  0  0
    4.1330   -2.3230   33.8800 C   0  0  0  0  0  0  0  0  0  0  0  0
    0.4450   -5.7930   33.1700 C   0  0  0  0  0  0  0  0  0  0  0  0
    2.9970   -4.4510   34.0090 C   0  0  0  0  0  0  0  0  0  0  0  0
    3.9380   -3.5690   34.5080 C   0  0  0  0  0  0  0  0  0  0  0  0
    5.4020   -5.0790   35.6500 C   0  0  0  0  0  0  0  0  0  0  0  0
    3.3870   -1.9910   32.7590 C   0  0  0  0  0  0  0  0  0  0  0  0
    2.4530   -2.8860   32.2660 C   0  0  0  0  0  0  0  0  0  0  0  0
    2.2490   -4.1200   32.8820 C   0  0  0  0  0  0  0  0  0  0  0  0
    1.2600   -5.0860   32.3450 C   0  0  0  0  0  0  0  0  0  0  0  0
    1.1710   -5.3550   30.9310 C   0  0  0  0  0  0  0  0  0  0  0  0
    0.3190   -6.2830   30.4240 C   0  0  0  0  0  0  0  0  0  0  0  0
   -0.5130   -7.0170   31.3060 C   0  0  0  0  0  0  0  0  0  0  0  0
   -1.3210   -7.6120   33.2510 C   0  0  0  0  0  0  0  0  0  0  0  0
   -1.9160   -8.3590   32.3280 N   0  0  0  0  0  0  0  0  0  0  0  0
   -1.5260   -7.6400   34.5750 N   0  0  0  0  0  0  0  0  0  0  0  0
   -0.4230   -6.7430   32.6670 N   0  0  0  0  0  0  0  0  0  0  0  0
    4.7330   -3.8180   35.5930 O   0  0  0  0  0  0  0  0  0  0  0  0
  3  2  1  0
  4  3  1  0
  7  6  1  0
  7  4  2  0
  9  4  1  0
 10  9  2  0
 11 10  1  0
 11  6  2  0
 12  5  2  0
 12 11  1  0
 13 12  1  0
 14 13  2  0
 15 14  1  0
 15  1  2  0
 17  1  1  0
 17 16  2  0
 18 16  1  0
 19 15  1  0
 19 16  1  0
 19  5  1  0
 20  8  1  0
 20  7  1  0
M  END
>  <id>  (2) 
132

>  <inchikey>  (2) 
WPZDOUWFJLYHBJ-UHFFFAOYSA-N

>  <alias>  (2) 
B0450a

>  <smiles>  (2) 
COc1ccc(-c2ccc3nnc(N)n3c2)cc1OC

>  <path>  (2) 
/opt/xchem-fragalysis-2/maxwin/BulkDock/TARGETS/D68EV3C/aligned_files/B0450a/B0450a.pdb

>  <distance_score>  (2) 
None

>  <energy_score>  (2) 
None

>  <compound>  (2) 
WPZDOUWFJLYHBJ-UHFFFAOYSA-N

>  <compound_id>  (2) 
108

>  <target>  (2) 
D68EV3C

$$$$
