7gp9-a
     RDKit          3D

 16 17  0  0  0  0  0  0  0  0999 V2000
    0.6840   -0.0070   28.3420 C   0  0  0  0  0  0  0  0  0  0  0  0
    0.3670    1.2690   27.9040 C   0  0  0  0  0  0  0  0  0  0  0  0
   -0.8920    1.4700   27.3700 C   0  0  0  0  0  0  0  0  0  0  0  0
   -1.7910    0.4380   27.2630 C   0  0  0  0  0  0  0  0  0  0  0  0
   -1.4910   -0.8250   27.7220 C   0  0  0  0  0  0  0  0  0  0  0  0
   -0.9470   -2.9450   29.6400 N   0  0  0  0  0  0  0  0  0  0  0  0
   -2.1700   -0.3300   31.4160 C   0  0  0  0  0  0  0  0  0  0  0  0
    0.3340   -3.3310   31.7260 O   0  0  0  0  0  0  0  0  0  0  0  0
   -0.8360   -1.0060   31.6160 C   0  0  0  0  0  0  0  0  0  0  0  0
    0.1310   -2.4250   28.7870 C   0  0  0  0  0  0  0  0  0  0  0  0
   -0.2320   -1.0560   28.2710 C   0  0  0  0  0  0  0  0  0  0  0  0
   -2.7670    2.2810   26.4600 C   0  0  0  0  0  0  0  0  0  0  0  0
   -2.1420   -3.2780   31.7870 O   0  0  0  0  0  0  0  0  0  0  0  0
   -2.9180    0.8630   26.5970 O   0  0  0  0  0  0  0  0  0  0  0  0
   -1.4630    2.6420   26.9260 O   0  0  0  0  0  0  0  0  0  0  0  0
   -0.9030   -2.7580   31.2800 S   0  0  1  0  0  0  0  0  0  0  0  0
  2  1  2  0
  3  2  1  0
  4  3  2  0
  5  4  1  0
  9  7  1  0
 10  6  1  0
 11 10  1  0
 11  5  2  0
 11  1  1  0
 14 12  1  0
 14  4  1  0
 15 12  1  0
 15  3  1  0
 16 13  2  0
 16  9  1  6
 16  8  2  0
 16  6  1  0
M  END
>  <id>  (1) 
13

>  <inchikey>  (1) 
UKPLBUIFSDRLEZ-UHFFFAOYSA-N

>  <alias>  (1) 
7gp9-a

>  <smiles>  (1) 
CCS(=O)(=O)NCc1ccc2c(c1)OCO2

>  <path>  (1) 
/opt/xchem-fragalysis-2/maxwin/BulkDock/TARGETS/D68EV3C/aligned_files/7gp9-a/7gp9-a.pdb

>  <distance_score>  (1) 
None

>  <energy_score>  (1) 
None

>  <compound>  (1) 
UKPLBUIFSDRLEZ-UHFFFAOYSA-N

>  <compound_id>  (1) 
12

>  <target>  (1) 
D68EV3C

$$$$
B0455a
     RDKit          3D

 20 22  0  0  0  0  0  0  0  0999 V2000
    2.5750    0.7990   34.9910 N   0  0  0  0  0  0  0  0  0  0  0  0
    1.7770    0.0890   35.9740 C   0  0  0  0  0  0  0  0  0  0  0  0
    4.2300    0.6260   33.4930 O   0  0  0  0  0  0  0  0  0  0  0  0
    3.2090    0.1710   34.0010 C   0  0  0  0  0  0  0  0  0  0  0  0
   -1.4280   -7.5620   33.2780 C   0  0  0  0  0  0  0  0  0  0  0  0
    0.0970   -5.5340   33.0860 C   0  0  0  0  0  0  0  0  0  0  0  0
    1.2760   -2.3370   31.9260 C   0  0  0  0  0  0  0  0  0  0  0  0
    1.8430   -1.1510   32.3590 C   0  0  0  0  0  0  0  0  0  0  0  0
    2.6190   -1.1150   33.5140 C   0  0  0  0  0  0  0  0  0  0  0  0
    2.8280   -2.3020   34.2120 C   0  0  0  0  0  0  0  0  0  0  0  0
    2.2570   -3.4870   33.7820 C   0  0  0  0  0  0  0  0  0  0  0  0
    1.4650   -3.5210   32.6360 C   0  0  0  0  0  0  0  0  0  0  0  0
    0.8030   -4.7760   32.2100 C   0  0  0  0  0  0  0  0  0  0  0  0
    0.8280   -5.1890   30.8310 C   0  0  0  0  0  0  0  0  0  0  0  0
    0.1580   -6.2820   30.3940 C   0  0  0  0  0  0  0  0  0  0  0  0
   -0.5990   -7.0440   31.3190 C   0  0  0  0  0  0  0  0  0  0  0  0
   -1.3720   -8.1100   31.1530 N   0  0  0  0  0  0  0  0  0  0  0  0
   -1.9020   -8.4350   32.4000 N   0  0  0  0  0  0  0  0  0  0  0  0
   -1.6720   -7.5250   34.5930 N   0  0  0  0  0  0  0  0  0  0  0  0
   -0.5990   -6.6450   32.6530 N   0  0  0  0  0  0  0  0  0  0  0  0
  2  1  1  0
  4  3  2  0
  4  1  1  0
  8  7  2  0
  9  8  1  0
  9  4  1  0
 10  9  2  0
 11 10  1  0
 12  7  1  0
 12 11  2  0
 13  6  2  0
 13 12  1  0
 14 13  1  0
 15 14  2  0
 16 15  1  0
 17 16  2  0
 18 17  1  0
 18  5  2  0
 19  5  1  0
 20 16  1  0
 20  6  1  0
 20  5  1  0
M  END
>  <id>  (2) 
136

>  <inchikey>  (2) 
CKVYAEVDVNCGJD-UHFFFAOYSA-N

>  <alias>  (2) 
B0455a

>  <smiles>  (2) 
CNC(=O)c1ccc(-c2ccc3nnc(N)n3c2)cc1

>  <path>  (2) 
/opt/xchem-fragalysis-2/maxwin/BulkDock/TARGETS/D68EV3C/aligned_files/B0455a/B0455a.pdb

>  <distance_score>  (2) 
None

>  <energy_score>  (2) 
None

>  <compound>  (2) 
CKVYAEVDVNCGJD-UHFFFAOYSA-N

>  <compound_id>  (2) 
110

>  <target>  (2) 
D68EV3C

$$$$
