B1020a
     RDKit          3D

 18 20  0  0  0  0  0  0  0  0999 V2000
    0.1430   -4.9380   37.1470 N   0  0  0  0  0  0  0  0  0  0  0  0
    1.0820   -4.2270   38.0380 C   0  0  0  0  0  0  0  0  0  0  0  0
    0.0410   -7.3940   37.2400 O   0  0  0  0  0  0  0  0  0  0  0  0
    0.3140   -3.3090   38.9720 C   0  0  0  0  0  0  0  0  0  0  0  0
   -1.7630   -3.5340   37.7390 C   0  0  0  0  0  0  0  0  0  0  0  0
   -1.2380   -4.9530   37.6610 C   0  0  0  0  0  0  0  0  0  0  0  0
    0.4380   -5.2370   34.1400 C   0  0  0  0  0  0  0  0  0  0  0  0
    0.8470   -5.8700   32.8160 C   0  0  0  0  0  0  0  0  0  0  0  0
   -0.2480   -6.7770   32.3460 C   0  0  0  0  0  0  0  0  0  0  0  0
   -1.1180   -7.3780   33.1870 C   0  0  0  0  0  0  0  0  0  0  0  0
   -1.1330   -7.1170   34.6590 C   0  0  0  0  0  0  0  0  0  0  0  0
   -0.7520   -2.5970   38.2570 N   0  0  0  0  0  0  0  0  0  0  0  0
    0.0060   -6.2800   35.0920 N   0  0  0  0  0  0  0  0  0  0  0  0
   -0.5190   -7.1920   31.0800 N   0  0  0  0  0  0  0  0  0  0  0  0
   -1.5200   -8.0470   31.1220 N   0  0  0  0  0  0  0  0  0  0  0  0
   -1.8880   -8.1640   32.4110 N   0  0  0  0  0  0  0  0  0  0  0  0
    2.0780   -6.2400   36.4020 O   0  0  0  0  0  0  0  0  0  0  0  0
    0.6680   -6.3230   36.5450 S   0  0  1  0  0  0  0  0  0  0  0  0
  2  1  1  0
  4  2  1  0
  6  5  1  0
  6  1  1  0
  8  7  1  0
  9  8  1  0
 10  9  2  0
 11 10  1  0
 12  5  1  0
 12  4  1  0
 13 11  1  0
 13  7  1  0
 14  9  1  0
 15 14  2  0
 16 15  1  0
 16 10  1  0
 18 17  2  0
 18 13  1  6
 18  3  2  0
 18  1  1  0
M  END
>  <id>  (1) 
168

>  <inchikey>  (1) 
RMTPRUDWXABPBE-UHFFFAOYSA-N

>  <alias>  (1) 
B1020a

>  <smiles>  (1) 
O=S(=O)(N1CCNCC1)N1CCc2nn[nH]c2C1

>  <path>  (1) 
/opt/xchem-fragalysis-2/maxwin/BulkDock/TARGETS/D68EV3C/aligned_files/B1020a/B1020a.pdb

>  <distance_score>  (1) 
None

>  <energy_score>  (1) 
None

>  <compound>  (1) 
RMTPRUDWXABPBE-UHFFFAOYSA-N

>  <compound_id>  (1) 
131

>  <target>  (1) 
D68EV3C

$$$$
B1457a
     RDKit          3D

 19 20  0  0  0  0  0  0  0  0999 V2000
   -0.4490   -6.9810   31.1520 N   0  0  0  0  0  0  0  0  0  0  0  0
   -0.4180   -6.3460   35.3480 C   0  0  0  0  0  0  0  0  0  0  0  0
   -1.9930   -8.6210   31.3940 O   0  0  0  0  0  0  0  0  0  0  0  0
   -0.4650   -6.6080   33.8780 C   0  0  0  0  0  0  0  0  0  0  0  0
   -1.2890   -7.5780   33.3390 C   0  0  0  0  0  0  0  0  0  0  0  0
   -1.2360   -7.7250   31.9500 C   0  0  0  0  0  0  0  0  0  0  0  0
    0.2940   -6.0670   31.7860 C   0  0  0  0  0  0  0  0  0  0  0  0
    1.1380   -5.1730   30.9290 C   0  0  0  0  0  0  0  0  0  0  0  0
    0.3330   -3.9480   30.5190 C   0  0  0  0  0  0  0  0  0  0  0  0
   -1.3020   -1.3260   30.2100 C   0  0  0  0  0  0  0  0  0  0  0  0
   -1.5270   -1.6670   28.9150 C   0  0  0  0  0  0  0  0  0  0  0  0
   -0.9600    0.6400   29.2490 C   0  0  0  0  0  0  0  0  0  0  0  0
   -0.1360   -3.1940   31.6930 N   0  0  0  0  0  0  0  0  0  0  0  0
   -0.9610    0.0220   30.3860 N   0  0  0  0  0  0  0  0  0  0  0  0
    0.3320   -5.8500   33.1050 N   0  0  0  0  0  0  0  0  0  0  0  0
   -2.5650   -3.1380   31.3860 O   0  0  0  0  0  0  0  0  0  0  0  0
   -1.4440   -1.3990   32.7330 O   0  0  0  0  0  0  0  0  0  0  0  0
   -1.4530   -2.2660   31.5950 S   0  0  2  0  0  0  0  0  0  0  0  0
   -1.3490   -0.3160   27.8890 S   0  0  0  0  0  0  0  0  0  0  0  0
  4  2  1  0
  5  4  2  0
  6  3  1  0
  6  1  2  0
  6  5  1  0
  7  1  1  0
  8  7  1  0
  9  8  1  0
 11 10  2  0
 13  9  1  0
 14 12  2  0
 14 10  1  0
 15  7  2  0
 15  4  1  0
 18 16  2  0
 18 13  1  1
 18 10  1  0
 18 17  2  0
 19 12  1  0
 19 11  1  0
M  END
>  <id>  (2) 
196

>  <inchikey>  (2) 
NFFNEEJNFLWXMI-UHFFFAOYSA-N

>  <alias>  (2) 
B1457a

>  <smiles>  (2) 
Cc1cc(O)nc(CCNS(=O)(=O)c2cscn2)n1

>  <path>  (2) 
/opt/xchem-fragalysis-2/maxwin/BulkDock/TARGETS/D68EV3C/aligned_files/B1457a/B1457a_hippo.pdb

>  <distance_score>  (2) 
None

>  <energy_score>  (2) 
None

>  <compound>  (2) 
NFFNEEJNFLWXMI-UHFFFAOYSA-N

>  <compound_id>  (2) 
153

>  <target>  (2) 
D68EV3C

$$$$
