7gp9-a
     RDKit          3D

 16 17  0  0  0  0  0  0  0  0999 V2000
    0.6840   -0.0070   28.3420 C   0  0  0  0  0  0  0  0  0  0  0  0
    0.3670    1.2690   27.9040 C   0  0  0  0  0  0  0  0  0  0  0  0
   -0.8920    1.4700   27.3700 C   0  0  0  0  0  0  0  0  0  0  0  0
   -1.7910    0.4380   27.2630 C   0  0  0  0  0  0  0  0  0  0  0  0
   -1.4910   -0.8250   27.7220 C   0  0  0  0  0  0  0  0  0  0  0  0
   -0.9470   -2.9450   29.6400 N   0  0  0  0  0  0  0  0  0  0  0  0
   -2.1700   -0.3300   31.4160 C   0  0  0  0  0  0  0  0  0  0  0  0
    0.3340   -3.3310   31.7260 O   0  0  0  0  0  0  0  0  0  0  0  0
   -0.8360   -1.0060   31.6160 C   0  0  0  0  0  0  0  0  0  0  0  0
    0.1310   -2.4250   28.7870 C   0  0  0  0  0  0  0  0  0  0  0  0
   -0.2320   -1.0560   28.2710 C   0  0  0  0  0  0  0  0  0  0  0  0
   -2.7670    2.2810   26.4600 C   0  0  0  0  0  0  0  0  0  0  0  0
   -2.1420   -3.2780   31.7870 O   0  0  0  0  0  0  0  0  0  0  0  0
   -2.9180    0.8630   26.5970 O   0  0  0  0  0  0  0  0  0  0  0  0
   -1.4630    2.6420   26.9260 O   0  0  0  0  0  0  0  0  0  0  0  0
   -0.9030   -2.7580   31.2800 S   0  0  1  0  0  0  0  0  0  0  0  0
  2  1  2  0
  3  2  1  0
  4  3  2  0
  5  4  1  0
  9  7  1  0
 10  6  1  0
 11 10  1  0
 11  5  2  0
 11  1  1  0
 14 12  1  0
 14  4  1  0
 15 12  1  0
 15  3  1  0
 16 13  2  0
 16  9  1  6
 16  8  2  0
 16  6  1  0
M  END
>  <id>  (1) 
13

>  <inchikey>  (1) 
UKPLBUIFSDRLEZ-UHFFFAOYSA-N

>  <alias>  (1) 
7gp9-a

>  <smiles>  (1) 
CCS(=O)(=O)NCc1ccc2c(c1)OCO2

>  <path>  (1) 
/opt/xchem-fragalysis-2/maxwin/BulkDock/TARGETS/D68EV3C/aligned_files/7gp9-a/7gp9-a.pdb

>  <distance_score>  (1) 
None

>  <energy_score>  (1) 
None

>  <compound>  (1) 
UKPLBUIFSDRLEZ-UHFFFAOYSA-N

>  <compound_id>  (1) 
12

>  <target>  (1) 
D68EV3C

$$$$
B0742a
     RDKit          3D

 21 24  0  0  0  0  0  0  0  0999 V2000
   -1.4300   -5.2280   36.8940 N   0  0  0  0  0  0  0  0  0  0  0  0
   -1.0630   -7.1140   41.6710 C   0  0  0  0  0  0  0  0  0  0  0  0
   -0.1930   -7.8100   40.8580 C   0  0  0  0  0  0  0  0  0  0  0  0
   -0.6760   -6.7470   31.0970 C   0  0  0  0  0  0  0  0  0  0  0  0
   -1.2640   -7.8670   32.8800 C   0  0  0  0  0  0  0  0  0  0  0  0
   -1.5930   -5.6560   39.8390 C   0  0  0  0  0  0  0  0  0  0  0  0
   -1.7590   -6.0370   41.1640 C   0  0  0  0  0  0  0  0  0  0  0  0
   -0.0240   -7.4410   39.5330 C   0  0  0  0  0  0  0  0  0  0  0  0
   -0.7310   -6.3620   39.0060 C   0  0  0  0  0  0  0  0  0  0  0  0
   -0.6160   -6.0220   37.5750 C   0  0  0  0  0  0  0  0  0  0  0  0
    0.0160   -6.0940   35.5100 C   0  0  0  0  0  0  0  0  0  0  0  0
    0.4600   -6.0450   33.1220 C   0  0  0  0  0  0  0  0  0  0  0  0
    1.1110   -5.0390   32.4230 C   0  0  0  0  0  0  0  0  0  0  0  0
    0.8810   -4.9090   31.0380 C   0  0  0  0  0  0  0  0  0  0  0  0
    0.0190   -5.7430   30.3810 C   0  0  0  0  0  0  0  0  0  0  0  0
   -1.0230   -5.2780   35.5590 N   0  0  0  0  0  0  0  0  0  0  0  0
    0.7350   -6.4710   34.4190 N   0  0  0  0  0  0  0  0  0  0  0  0
   -1.5750   -7.6570   30.7370 N   0  0  0  0  0  0  0  0  0  0  0  0
   -1.9410   -8.3620   31.8840 N   0  0  0  0  0  0  0  0  0  0  0  0
   -0.4440   -6.8590   32.4600 N   0  0  0  0  0  0  0  0  0  0  0  0
    0.3190   -6.5670   36.7340 N   0  0  0  0  0  0  0  0  0  0  0  0
  3  2  2  0
  7  6  2  0
  7  2  1  0
  8  3  1  0
  9  8  2  0
  9  6  1  0
 10  9  1  0
 10  1  2  0
 13 12  2  0
 14 13  1  0
 15  4  1  0
 15 14  2  0
 16 11  2  0
 16  1  1  0
 17 12  1  0
 17 11  1  0
 18  4  2  0
 19 18  1  0
 19  5  2  0
 20  4  1  0
 20 12  1  0
 20  5  1  0
 21 11  1  0
 21 10  1  0
M  END
>  <id>  (2) 
150

>  <inchikey>  (2) 
DNEHZXPFMONSEW-UHFFFAOYSA-N

>  <alias>  (2) 
B0742a

>  <smiles>  (2) 
c1ccc(-c2nnc(Nc3cccc4nncn34)[nH]2)cc1

>  <path>  (2) 
/opt/xchem-fragalysis-2/maxwin/BulkDock/TARGETS/D68EV3C/aligned_files/B0742a/B0742a.pdb

>  <distance_score>  (2) 
None

>  <energy_score>  (2) 
None

>  <compound>  (2) 
DNEHZXPFMONSEW-UHFFFAOYSA-N

>  <compound_id>  (2) 
121

>  <target>  (2) 
D68EV3C

$$$$
