7gp9-a
     RDKit          3D

 16 17  0  0  0  0  0  0  0  0999 V2000
    0.6840   -0.0070   28.3420 C   0  0  0  0  0  0  0  0  0  0  0  0
    0.3670    1.2690   27.9040 C   0  0  0  0  0  0  0  0  0  0  0  0
   -0.8920    1.4700   27.3700 C   0  0  0  0  0  0  0  0  0  0  0  0
   -1.7910    0.4380   27.2630 C   0  0  0  0  0  0  0  0  0  0  0  0
   -1.4910   -0.8250   27.7220 C   0  0  0  0  0  0  0  0  0  0  0  0
   -0.9470   -2.9450   29.6400 N   0  0  0  0  0  0  0  0  0  0  0  0
   -2.1700   -0.3300   31.4160 C   0  0  0  0  0  0  0  0  0  0  0  0
    0.3340   -3.3310   31.7260 O   0  0  0  0  0  0  0  0  0  0  0  0
   -0.8360   -1.0060   31.6160 C   0  0  0  0  0  0  0  0  0  0  0  0
    0.1310   -2.4250   28.7870 C   0  0  0  0  0  0  0  0  0  0  0  0
   -0.2320   -1.0560   28.2710 C   0  0  0  0  0  0  0  0  0  0  0  0
   -2.7670    2.2810   26.4600 C   0  0  0  0  0  0  0  0  0  0  0  0
   -2.1420   -3.2780   31.7870 O   0  0  0  0  0  0  0  0  0  0  0  0
   -2.9180    0.8630   26.5970 O   0  0  0  0  0  0  0  0  0  0  0  0
   -1.4630    2.6420   26.9260 O   0  0  0  0  0  0  0  0  0  0  0  0
   -0.9030   -2.7580   31.2800 S   0  0  1  0  0  0  0  0  0  0  0  0
  2  1  2  0
  3  2  1  0
  4  3  2  0
  5  4  1  0
  9  7  1  0
 10  6  1  0
 11 10  1  0
 11  5  2  0
 11  1  1  0
 14 12  1  0
 14  4  1  0
 15 12  1  0
 15  3  1  0
 16 13  2  0
 16  9  1  6
 16  8  2  0
 16  6  1  0
M  END
>  <id>  (1) 
13

>  <inchikey>  (1) 
UKPLBUIFSDRLEZ-UHFFFAOYSA-N

>  <alias>  (1) 
7gp9-a

>  <smiles>  (1) 
CCS(=O)(=O)NCc1ccc2c(c1)OCO2

>  <path>  (1) 
/opt/xchem-fragalysis-2/maxwin/BulkDock/TARGETS/D68EV3C/aligned_files/7gp9-a/7gp9-a.pdb

>  <distance_score>  (1) 
None

>  <energy_score>  (1) 
None

>  <compound>  (1) 
UKPLBUIFSDRLEZ-UHFFFAOYSA-N

>  <compound_id>  (1) 
12

>  <target>  (1) 
D68EV3C

$$$$
B0805a
     RDKit          3D

 23 26  0  0  0  0  0  0  0  0999 V2000
    0.3130   -5.9250   34.9060 N   0  0  0  0  0  0  0  0  0  0  0  0
    1.8550   -6.3150   37.1350 C   0  0  2  0  0  0  0  0  0  0  0  0
    1.8360   -7.9180   35.0820 O   0  0  0  0  0  0  0  0  0  0  0  0
    2.3290   -7.3490   38.1320 C   0  0  0  0  0  0  0  0  0  0  0  0
    0.2210   -5.8950   33.5010 C   0  0  0  0  0  0  0  0  0  0  0  0
    0.9860   -5.0630   32.7010 C   0  0  0  0  0  0  0  0  0  0  0  0
    0.8940   -5.1740   31.2930 C   0  0  0  0  0  0  0  0  0  0  0  0
    0.0680   -6.0860   30.7040 C   0  0  0  0  0  0  0  0  0  0  0  0
   -0.7340   -6.9350   31.5080 C   0  0  0  0  0  0  0  0  0  0  0  0
   -1.5210   -7.7320   33.3870 C   0  0  0  0  0  0  0  0  0  0  0  0
    3.6630   -7.7250   38.1670 C   0  0  0  0  0  0  0  0  0  0  0  0
    4.0920   -8.7310   39.0190 C   0  0  0  0  0  0  0  0  0  0  0  0
    3.1970   -9.3630   39.8530 C   0  0  0  0  0  0  0  0  0  0  0  0
    1.8720   -8.9950   39.8350 C   0  0  0  0  0  0  0  0  0  0  0  0
    1.4390   -7.9880   38.9850 C   0  0  0  0  0  0  0  0  0  0  0  0
    1.0000   -5.1980   37.7330 C   0  0  0  0  0  0  0  0  0  0  0  0
    0.6470   -4.1780   36.6590 C   0  0  0  0  0  0  0  0  0  0  0  0
   -0.2880   -4.7850   35.6450 C   0  0  0  0  0  0  0  0  0  0  0  0
   -1.6050   -7.8950   31.2150 N   0  0  0  0  0  0  0  0  0  0  0  0
   -2.1020   -8.3910   32.4210 N   0  0  0  0  0  0  0  0  0  0  0  0
   -0.6450   -6.8080   32.8890 N   0  0  0  0  0  0  0  0  0  0  0  0
   -0.1940   -7.7970   36.4630 O   0  0  0  0  0  0  0  0  0  0  0  0
    0.9180   -7.1310   35.8520 S   0  0  2  0  0  0  0  0  0  0  0  0
  2  4  1  1
  5  1  1  0
  6  5  2  0
  7  6  1  0
  8  7  2  0
  9  8  1  0
 11  4  2  0
 12 11  1  0
 13 12  2  0
 14 13  1  0
 15  4  1  0
 15 14  2  0
 16  2  1  0
 17 16  1  0
 18  1  1  0
 18 17  1  0
 19  9  2  0
 20 19  1  0
 20 10  2  0
 21  9  1  0
 21 10  1  0
 21  5  1  0
 23 22  2  0
 23  3  2  0
 23  2  1  0
 23  1  1  6
M  END
>  <id>  (2) 
152

>  <inchikey>  (2) 
DPLORBPGZRNKJU-AWEZNQCLSA-N

>  <alias>  (2) 
B0805a

>  <smiles>  (2) 
O=S1(=O)[C@H](c2ccccc2)CCCN1c1cccc2nncn12

>  <path>  (2) 
/opt/xchem-fragalysis-2/maxwin/BulkDock/TARGETS/D68EV3C/aligned_files/B0805a/B0805a.pdb

>  <distance_score>  (2) 
None

>  <energy_score>  (2) 
None

>  <compound>  (2) 
DPLORBPGZRNKJU-UHFFFAOYSA-N

>  <compound_id>  (2) 
123

>  <target>  (2) 
D68EV3C

$$$$
