7gpf-a
     RDKit          3D

 15 16  0  0  0  0  0  0  0  0999 V2000
   -1.1510    1.5180   26.9700 N   0  0  0  0  0  0  0  0  0  0  0  0
    1.9860    5.6130   26.5050 C   0  0  0  0  0  0  0  0  0  0  0  0
    1.9960    4.4330   27.2360 C   0  0  0  0  0  0  0  0  0  0  0  0
   -0.4440    3.9850   27.3090 C   0  0  0  0  0  0  0  0  0  0  0  0
   -1.3510    2.8350   27.5690 C   0  0  1  0  0  0  0  0  0  0  0  0
   -2.8160    3.1550   27.7470 C   0  0  0  0  0  0  0  0  0  0  0  0
   -2.5130    1.0360   26.6700 C   0  0  0  0  0  0  0  0  0  0  0  0
    0.8580    3.6690   27.4900 N   0  0  0  0  0  0  0  0  0  0  0  0
    5.5020    3.4760   27.5060 C   0  0  0  0  0  0  0  0  0  0  0  0
   -0.8930    5.0580   26.9140 O   0  0  0  0  0  0  0  0  0  0  0  0
    4.2820    4.2440   27.1140 C   0  0  0  0  0  0  0  0  0  0  0  0
    4.3590    5.3980   26.3370 C   0  0  0  0  0  0  0  0  0  0  0  0
    3.1970    6.0830   26.0360 C   0  0  0  0  0  0  0  0  0  0  0  0
   -3.4590    2.2470   26.7270 C   0  0  0  0  0  0  0  0  0  0  0  0
    3.1100    3.7730   27.5620 N   0  0  0  0  0  0  0  0  0  0  0  0
  3  2  2  0
  5  1  1  0
  5  4  1  6
  6  5  1  0
  7  1  1  0
  8  3  1  0
  8  4  1  0
 10  4  2  0
 11  9  1  0
 12 11  1  0
 13 12  2  0
 13  2  1  0
 14  7  1  0
 14  6  1  0
 15 11  2  0
 15  3  1  0
M  END
>  <id>  (1) 
53

>  <inchikey>  (1) 
QILVMVSMHKJUDZ-SECBINFHSA-N

>  <alias>  (1) 
7gpf-a

>  <smiles>  (1) 
Cc1cccc(NC(=O)[C@H]2CCCN2)n1

>  <path>  (1) 
/opt/xchem-fragalysis-2/maxwin/BulkDock/TARGETS/D68EV3C/aligned_files/7gpf-a/7gpf-a.pdb

>  <distance_score>  (1) 
None

>  <energy_score>  (1) 
None

>  <compound>  (1) 
QILVMVSMHKJUDZ-UHFFFAOYSA-N

>  <compound_id>  (1) 
44

>  <target>  (1) 
D68EV3C

$$$$
7goy-a
     RDKit          3D

 14 14  0  0  0  0  0  0  0  0999 V2000
   -1.1070    0.0340   31.3590 N   0  0  0  0  0  0  0  0  0  0  0  0
   -1.8670   -0.9920   31.0400 C   0  0  0  0  0  0  0  0  0  0  0  0
   -1.7140   -1.3620   29.6890 C   0  0  0  0  0  0  0  0  0  0  0  0
   -0.8050   -0.5060   29.1970 C   0  0  0  0  0  0  0  0  0  0  0  0
   -0.1370   -0.3500   27.8790 C   0  0  0  0  0  0  0  0  0  0  0  0
   -3.0260   -0.8940   33.1310 N   0  0  0  0  0  0  0  0  0  0  0  0
   -7.2220   -0.9230   35.3990 C   0  0  0  0  0  0  0  0  0  0  0  0
   -5.7760   -0.9880   35.4310 O   0  0  0  0  0  0  0  0  0  0  0  0
   -5.1420   -0.6870   34.3080 C   0  0  0  0  0  0  0  0  0  0  0  0
   -3.8330   -1.4120   34.2150 C   0  0  0  0  0  0  0  0  0  0  0  0
   -2.7340   -1.6350   32.0570 C   0  0  0  0  0  0  0  0  0  0  0  0
   -5.5530    0.0630   33.5040 O   0  0  0  0  0  0  0  0  0  0  0  0
   -3.1480   -2.7910   31.9080 O   0  0  0  0  0  0  0  0  0  0  0  0
   -0.4170    0.3530   30.1590 O   0  0  0  0  0  0  0  0  0  0  0  0
  2  1  2  0
  3  2  1  0
  4  3  2  0
  5  4  1  0
  8  7  1  0
  9  8  1  0
 10  9  1  0
 10  6  1  0
 11  2  1  0
 11  6  1  0
 12  9  2  0
 13 11  2  0
 14  4  1  0
 14  1  1  0
M  END
>  <id>  (2) 
59

>  <inchikey>  (2) 
FPAQMEYCJIMDCC-UHFFFAOYSA-N

>  <alias>  (2) 
7goy-a

>  <smiles>  (2) 
COC(=O)CNC(=O)c1cc(C)on1

>  <path>  (2) 
/opt/xchem-fragalysis-2/maxwin/BulkDock/TARGETS/D68EV3C/aligned_files/7goy-a/7goy-a.pdb

>  <distance_score>  (2) 
None

>  <energy_score>  (2) 
None

>  <compound>  (2) 
FPAQMEYCJIMDCC-UHFFFAOYSA-N

>  <compound_id>  (2) 
49

>  <target>  (2) 
D68EV3C

$$$$
