7gol-a
     RDKit          3D

 14 15  0  0  0  0  0  0  0  0999 V2000
   -1.7000   -8.3990   32.7160 N   0  0  0  0  0  0  0  0  0  0  0  0
    1.3220   -3.7530   34.6870 C   0  0  1  0  0  0  0  0  0  0  0  0
    0.3530   -4.9150   34.4910 C   0  0  0  0  0  0  0  0  0  0  0  0
   -0.3190   -6.6240   32.8600 C   0  0  0  0  0  0  0  0  0  0  0  0
   -1.1370   -7.4710   33.5270 C   0  0  0  0  0  0  0  0  0  0  0  0
    0.4530   -5.5440   33.2850 N   0  0  0  0  0  0  0  0  0  0  0  0
    3.2290   -5.5530   34.5670 C   0  0  0  0  0  0  0  0  0  0  0  0
    1.3360   -3.3200   36.0620 O   0  0  0  0  0  0  0  0  0  0  0  0
    2.7860   -4.1060   34.3450 C   0  0  2  0  0  0  0  0  0  0  0  0
    3.5370   -3.1020   35.2100 C   0  0  0  0  0  0  0  0  0  0  0  0
    2.6910   -3.0530   36.4580 C   0  0  0  0  0  0  0  0  0  0  0  0
   -1.3710   -8.3240   31.4750 N   0  0  0  0  0  0  0  0  0  0  0  0
   -0.4580   -5.2260   35.3610 O   0  0  0  0  0  0  0  0  0  0  0  0
   -0.3040   -7.0570   31.1990 S   0  0  0  0  0  0  0  0  0  0  0  0
  2  3  1  1
  5  4  2  0
  5  1  1  0
  6  4  1  0
  6  3  1  0
  8  2  1  0
  9  7  1  1
  9  2  1  0
 10  9  1  0
 11 10  1  0
 11  8  1  0
 12  1  2  0
 13  3  2  0
 14 12  1  0
 14  4  1  0
M  END
>  <id>  (1) 
41

>  <inchikey>  (1) 
OAYBAYPFIGUPDE-VDTYLAMSSA-N

>  <alias>  (1) 
7gol-a

>  <smiles>  (1) 
C[C@@H]1CCO[C@@H]1C(=O)Nc1cnns1

>  <path>  (1) 
/opt/xchem-fragalysis-2/maxwin/BulkDock/TARGETS/D68EV3C/aligned_files/7gol-a/7gol-a.pdb

>  <distance_score>  (1) 
None

>  <energy_score>  (1) 
None

>  <compound>  (1) 
OAYBAYPFIGUPDE-UHFFFAOYSA-N

>  <compound_id>  (1) 
33

>  <target>  (1) 
D68EV3C

$$$$
B1219a
     RDKit          3D

 20 23  0  0  0  0  0  0  0  0999 V2000
    2.4450   -3.5400   30.0940 N   0  0  0  0  0  0  0  0  0  0  0  0
   -0.3640   -1.1570   28.2900 C   0  0  0  0  0  0  0  0  0  0  0  0
    0.9420   -0.8350   27.9960 C   0  0  0  0  0  0  0  0  0  0  0  0
   -0.3530   -7.3690   31.1520 C   0  0  0  0  0  0  0  0  0  0  0  0
    0.2980   -2.9840   29.6280 C   0  0  0  0  0  0  0  0  0  0  0  0
   -0.7310   -2.2250   29.0790 C   0  0  0  0  0  0  0  0  0  0  0  0
    1.9540   -1.6110   28.5380 C   0  0  0  0  0  0  0  0  0  0  0  0
    1.6340   -2.6830   29.3670 C   0  0  0  0  0  0  0  0  0  0  0  0
    1.6340   -4.3110   30.7630 C   0  0  0  0  0  0  0  0  0  0  0  0
    0.9270   -6.0560   32.9080 C   0  0  0  0  0  0  0  0  0  0  0  0
    0.9330   -5.7320   34.2240 C   0  0  0  0  0  0  0  0  0  0  0  0
   -0.0590   -6.2760   35.0830 C   0  0  0  0  0  0  0  0  0  0  0  0
   -1.0270   -7.1150   34.6040 C   0  0  0  0  0  0  0  0  0  0  0  0
   -1.0530   -7.4400   33.2240 C   0  0  0  0  0  0  0  0  0  0  0  0
   -1.3490   -0.3480   27.8130 F   0  0  0  0  0  0  0  0  0  0  0  0
   -1.8590   -8.2010   32.4890 N   0  0  0  0  0  0  0  0  0  0  0  0
   -1.4010   -8.1450   31.1740 N   0  0  0  0  0  0  0  0  0  0  0  0
   -0.0720   -6.8940   32.4010 N   0  0  0  0  0  0  0  0  0  0  0  0
    0.3260   -4.0470   30.5310 N   0  0  0  0  0  0  0  0  0  0  0  0
    2.2130   -5.5520   31.8600 S   0  0  0  0  0  0  0  0  0  0  0  0
  3  2  2  0
  6  5  2  0
  6  2  1  0
  7  3  1  0
  8  7  2  0
  8  5  1  0
  8  1  1  0
  9  1  2  0
 11 10  2  0
 12 11  1  0
 13 12  2  0
 14 13  1  0
 15  2  1  0
 16 14  2  0
 17 16  1  0
 17  4  2  0
 18  4  1  0
 18 14  1  0
 18 10  1  0
 19  9  1  0
 19  5  1  0
 20 10  1  0
 20  9  1  0
M  END
>  <id>  (2) 
180

>  <inchikey>  (2) 
RAAZIUQROHXXRO-UHFFFAOYSA-N

>  <alias>  (2) 
B1219a

>  <smiles>  (2) 
Fc1ccc2nc(Sc3cccc4nncn34)[nH]c2c1

>  <path>  (2) 
/opt/xchem-fragalysis-2/maxwin/BulkDock/TARGETS/D68EV3C/aligned_files/B1219a/B1219a.pdb

>  <distance_score>  (2) 
None

>  <energy_score>  (2) 
None

>  <compound>  (2) 
RAAZIUQROHXXRO-UHFFFAOYSA-N

>  <compound_id>  (2) 
142

>  <target>  (2) 
D68EV3C

$$$$
