7gqf-a
     RDKit          3D

 10 11  0  0  0  0  0  0  0  0999 V2000
   -1.4190   -8.1260   31.1110 N   0  0  0  0  0  0  0  0  0  0  0  0
   -0.2530   -6.8140   32.4920 N   0  0  0  0  0  0  0  0  0  0  0  0
    0.6230   -5.8280   34.4510 C   0  0  0  0  0  0  0  0  0  0  0  0
    0.6440   -5.9570   33.1050 C   0  0  0  0  0  0  0  0  0  0  0  0
    0.2560   -6.7270   30.1550 N   0  0  0  0  0  0  0  0  0  0  0  0
   -0.4570   -7.2170   31.1740 C   0  0  0  0  0  0  0  0  0  0  0  0
   -1.1810   -7.5560   33.2180 C   0  0  0  0  0  0  0  0  0  0  0  0
   -1.8830   -8.3430   32.4110 N   0  0  0  0  0  0  0  0  0  0  0  0
   -0.3160   -6.5540   35.2160 C   0  0  0  0  0  0  0  0  0  0  0  0
   -1.2030   -7.3980   34.6240 C   0  0  0  0  0  0  0  0  0  0  0  0
  4  2  1  0
  4  3  2  0
  6  5  1  0
  6  2  1  0
  6  1  2  0
  7  2  1  0
  8  1  1  0
  8  7  2  0
  9  3  1  0
 10  9  2  0
 10  7  1  0
M  END
>  <id>  (1) 
72

>  <inchikey>  (1) 
NCZQAIFOXJOCFI-UHFFFAOYSA-N

>  <alias>  (1) 
7gqf-a

>  <smiles>  (1) 
Nc1nnc2ccccn12

>  <path>  (1) 
/opt/xchem-fragalysis-2/maxwin/BulkDock/TARGETS/D68EV3C/aligned_files/7gqf-a/7gqf-a.pdb

>  <distance_score>  (1) 
None

>  <energy_score>  (1) 
None

>  <compound>  (1) 
NCZQAIFOXJOCFI-UHFFFAOYSA-N

>  <compound_id>  (1) 
58

>  <target>  (1) 
D68EV3C

$$$$
7gqh-a
     RDKit          3D

 15 16  0  0  0  0  0  0  0  0999 V2000
   -1.3870   -7.6550   33.7650 C   0  0  0  0  0  0  0  0  0  0  0  0
    0.3530   -6.1180   37.8800 C   0  0  0  0  0  0  0  0  0  0  0  0
    0.2870   -5.8410   36.3950 C   0  0  1  0  0  0  0  0  0  0  0  0
   -0.3850   -4.5240   36.0700 C   0  0  0  0  0  0  0  0  0  0  0  0
    1.8450   -5.9550   34.5430 C   0  0  0  0  0  0  0  0  0  0  0  0
    0.7620   -6.5580   33.7710 C   0  0  0  0  0  0  0  0  0  0  0  0
    0.8470   -6.7210   32.3900 C   0  0  0  0  0  0  0  0  0  0  0  0
   -0.1780   -7.3690   31.7200 C   0  0  0  0  0  0  0  0  0  0  0  0
   -1.2950   -7.8480   32.3950 C   0  0  0  0  0  0  0  0  0  0  0  0
   -0.3610   -7.0260   34.4340 C   0  0  0  0  0  0  0  0  0  0  0  0
    1.6430   -5.8520   35.8880 O   0  0  0  0  0  0  0  0  0  0  0  0
    2.9020   -5.5660   34.1060 O   0  0  0  0  0  0  0  0  0  0  0  0
   -2.2570   -8.5200   31.7220 O   0  0  0  0  0  0  0  0  0  0  0  0
   -0.4680   -6.9210   35.8010 O   0  0  0  0  0  0  0  0  0  0  0  0
   -0.0440   -7.6220   29.8460 Br  0  0  0  0  0  0  0  0  0  0  0  0
  3  2  1  1
  4  3  1  0
  6  5  1  0
  7  6  1  0
  8  7  2  0
  9  8  1  0
  9  1  2  0
 10  6  2  0
 10  1  1  0
 11  5  1  0
 11  3  1  0
 12  5  2  0
 13  9  1  0
 14 10  1  0
 14  3  1  0
 15  8  1  0
M  END
>  <id>  (2) 
78

>  <inchikey>  (2) 
FOZVJTHORLMHQD-UHFFFAOYSA-N

>  <alias>  (2) 
7gqh-a

>  <smiles>  (2) 
CC1(C)OC(=O)c2cc(Br)c(O)cc2O1

>  <path>  (2) 
/opt/xchem-fragalysis-2/maxwin/BulkDock/TARGETS/D68EV3C/aligned_files/7gqh-a/7gqh-a.pdb

>  <distance_score>  (2) 
None

>  <energy_score>  (2) 
None

>  <compound>  (2) 
FOZVJTHORLMHQD-UHFFFAOYSA-N

>  <compound_id>  (2) 
63

>  <target>  (2) 
D68EV3C

$$$$
7gpk-a
     RDKit          3D

 13 14  0  0  0  0  0  0  0  0999 V2000
   -4.9440   -0.2230   33.5090 C   0  0  0  0  0  0  0  0  0  0  0  0
   -4.7000   -1.6960   33.7060 C   0  0  1  0  0  0  0  0  0  0  0  0
   -4.6170   -2.0090   35.1790 C   0  0  0  0  0  0  0  0  0  0  0  0
   -5.2290   -0.8850   36.0070 C   0  0  0  0  0  0  0  0  0  0  0  0
   -7.1680    0.5450   36.3250 C   0  0  0  0  0  0  0  0  0  0  0  0
   -8.4380    0.0600   36.9780 C   0  0  0  0  0  0  0  0  0  0  0  0
   -9.0250    0.6410   38.1460 C   0  0  0  0  0  0  0  0  0  0  0  0
  -10.1990    0.0410   38.5260 C   0  0  0  0  0  0  0  0  0  0  0  0
   -9.1870   -0.9790   36.4970 C   0  0  0  0  0  0  0  0  0  0  0  0
   -6.2790    0.1890   34.1130 C   0  0  0  0  0  0  0  0  0  0  0  0
   -6.5080   -0.4170   35.4350 N   0  0  0  0  0  0  0  0  0  0  0  0
   -5.7610   -2.4380   33.1170 O   0  0  0  0  0  0  0  0  0  0  0  0
  -10.5850   -1.2610   37.4330 S   0  0  0  0  0  0  0  0  0  0  0  0
  2  1  1  0
  3  2  1  0
  4  3  1  0
  6  5  1  0
  7  6  1  0
  8  7  2  0
  9  6  2  0
 10  1  1  0
 11 10  1  0
 11  5  1  0
 11  4  1  0
  2 12  1  1
 13  9  1  0
 13  8  1  0
M  END
>  <id>  (3) 
121

>  <inchikey>  (3) 
JQJVNJKLFUBEBG-UHFFFAOYSA-N

>  <alias>  (3) 
7gpk-a

>  <smiles>  (3) 
OC1CCN(Cc2ccsc2)CC1

>  <path>  (3) 
/opt/xchem-fragalysis-2/maxwin/BulkDock/TARGETS/D68EV3C/aligned_files/7gpk-a/7gpk-a.pdb

>  <distance_score>  (3) 
None

>  <energy_score>  (3) 
None

>  <compound>  (3) 
JQJVNJKLFUBEBG-UHFFFAOYSA-N

>  <compound_id>  (3) 
99

>  <target>  (3) 
D68EV3C

$$$$
B1460a
     RDKit          3D

 20 21  0  0  0  0  0  0  0  0999 V2000
   -1.9700    1.1900   26.7420 N   0  0  0  0  0  0  0  0  0  0  0  0
   -1.7540    0.3980   27.8120 C   0  0  0  0  0  0  0  0  0  0  0  0
   -0.8550   -1.5970   32.4600 O   0  0  0  0  0  0  0  0  0  0  0  0
   -1.3110    0.9400   29.0420 C   0  0  0  0  0  0  0  0  0  0  0  0
   -1.7670   -1.7320   28.7200 C   0  0  0  0  0  0  0  0  0  0  0  0
   -1.1100    0.0910   30.1130 C   0  0  0  0  0  0  0  0  0  0  0  0
   -1.3340   -1.2670   29.9480 C   0  0  0  0  0  0  0  0  0  0  0  0
    0.5020   -4.0720   29.8470 C   0  0  0  0  0  0  0  0  0  0  0  0
    1.2360   -5.3480   30.2670 C   0  0  0  0  0  0  0  0  0  0  0  0
    0.4950   -6.1270   31.3100 C   0  0  0  0  0  0  0  0  0  0  0  0
    0.0300   -6.4940   33.5210 C   0  0  0  0  0  0  0  0  0  0  0  0
   -0.9370   -7.4280   33.2030 C   0  0  0  0  0  0  0  0  0  0  0  0
   -1.1190   -7.6660   31.8390 C   0  0  0  0  0  0  0  0  0  0  0  0
    0.3440   -3.1500   30.9860 N   0  0  0  0  0  0  0  0  0  0  0  0
    0.7610   -5.8360   32.6130 N   0  0  0  0  0  0  0  0  0  0  0  0
   -0.4070   -7.0220   30.8820 N   0  0  0  0  0  0  0  0  0  0  0  0
   -1.9830   -0.9290   27.6670 N   0  0  0  0  0  0  0  0  0  0  0  0
   -2.0860   -3.3680   31.2560 O   0  0  0  0  0  0  0  0  0  0  0  0
   -2.0040   -8.5410   31.4510 O   0  0  0  0  0  0  0  0  0  0  0  0
   -1.0510   -2.3820   31.2780 S   0  0  1  0  0  0  0  0  0  0  0  0
  2  1  1  0
  4  2  2  0
  6  4  1  0
  7  6  2  0
  7  5  1  0
  9  8  1  0
 10  9  1  0
 12 11  2  0
 13 12  1  0
 14  8  1  0
 15 10  2  0
 15 11  1  0
 16 13  2  0
 16 10  1  0
 17  5  2  0
 17  2  1  0
 19 13  1  0
 20 18  2  0
 20 14  1  6
 20  7  1  0
 20  3  2  0
M  END
>  <id>  (4) 
198

>  <inchikey>  (4) 
OCZUQLYBPXFJIF-UHFFFAOYSA-N

>  <alias>  (4) 
B1460a

>  <smiles>  (4) 
Nc1ccc(S(=O)(=O)NCCc2nccc(O)n2)cn1

>  <path>  (4) 
/opt/xchem-fragalysis-2/maxwin/BulkDock/TARGETS/D68EV3C/aligned_files/B1460a/B1460a_hippo.pdb

>  <distance_score>  (4) 
None

>  <energy_score>  (4) 
None

>  <compound>  (4) 
OCZUQLYBPXFJIF-UHFFFAOYSA-N

>  <compound_id>  (4) 
154

>  <target>  (4) 
D68EV3C

$$$$
