7gpf-a
     RDKit          3D

 15 16  0  0  0  0  0  0  0  0999 V2000
   -1.1510    1.5180   26.9700 N   0  0  0  0  0  0  0  0  0  0  0  0
    1.9860    5.6130   26.5050 C   0  0  0  0  0  0  0  0  0  0  0  0
    1.9960    4.4330   27.2360 C   0  0  0  0  0  0  0  0  0  0  0  0
   -0.4440    3.9850   27.3090 C   0  0  0  0  0  0  0  0  0  0  0  0
   -1.3510    2.8350   27.5690 C   0  0  1  0  0  0  0  0  0  0  0  0
   -2.8160    3.1550   27.7470 C   0  0  0  0  0  0  0  0  0  0  0  0
   -2.5130    1.0360   26.6700 C   0  0  0  0  0  0  0  0  0  0  0  0
    0.8580    3.6690   27.4900 N   0  0  0  0  0  0  0  0  0  0  0  0
    5.5020    3.4760   27.5060 C   0  0  0  0  0  0  0  0  0  0  0  0
   -0.8930    5.0580   26.9140 O   0  0  0  0  0  0  0  0  0  0  0  0
    4.2820    4.2440   27.1140 C   0  0  0  0  0  0  0  0  0  0  0  0
    4.3590    5.3980   26.3370 C   0  0  0  0  0  0  0  0  0  0  0  0
    3.1970    6.0830   26.0360 C   0  0  0  0  0  0  0  0  0  0  0  0
   -3.4590    2.2470   26.7270 C   0  0  0  0  0  0  0  0  0  0  0  0
    3.1100    3.7730   27.5620 N   0  0  0  0  0  0  0  0  0  0  0  0
  3  2  2  0
  5  1  1  0
  5  4  1  6
  6  5  1  0
  7  1  1  0
  8  3  1  0
  8  4  1  0
 10  4  2  0
 11  9  1  0
 12 11  1  0
 13 12  2  0
 13  2  1  0
 14  7  1  0
 14  6  1  0
 15 11  2  0
 15  3  1  0
M  END
>  <id>  (1) 
53

>  <inchikey>  (1) 
QILVMVSMHKJUDZ-SECBINFHSA-N

>  <alias>  (1) 
7gpf-a

>  <smiles>  (1) 
Cc1cccc(NC(=O)[C@H]2CCCN2)n1

>  <path>  (1) 
/opt/xchem-fragalysis-2/maxwin/BulkDock/TARGETS/D68EV3C/aligned_files/7gpf-a/7gpf-a.pdb

>  <distance_score>  (1) 
None

>  <energy_score>  (1) 
None

>  <compound>  (1) 
QILVMVSMHKJUDZ-UHFFFAOYSA-N

>  <compound_id>  (1) 
44

>  <target>  (1) 
D68EV3C

$$$$
B1219a
     RDKit          3D

 20 23  0  0  0  0  0  0  0  0999 V2000
    2.4450   -3.5400   30.0940 N   0  0  0  0  0  0  0  0  0  0  0  0
   -0.3640   -1.1570   28.2900 C   0  0  0  0  0  0  0  0  0  0  0  0
    0.9420   -0.8350   27.9960 C   0  0  0  0  0  0  0  0  0  0  0  0
   -0.3530   -7.3690   31.1520 C   0  0  0  0  0  0  0  0  0  0  0  0
    0.2980   -2.9840   29.6280 C   0  0  0  0  0  0  0  0  0  0  0  0
   -0.7310   -2.2250   29.0790 C   0  0  0  0  0  0  0  0  0  0  0  0
    1.9540   -1.6110   28.5380 C   0  0  0  0  0  0  0  0  0  0  0  0
    1.6340   -2.6830   29.3670 C   0  0  0  0  0  0  0  0  0  0  0  0
    1.6340   -4.3110   30.7630 C   0  0  0  0  0  0  0  0  0  0  0  0
    0.9270   -6.0560   32.9080 C   0  0  0  0  0  0  0  0  0  0  0  0
    0.9330   -5.7320   34.2240 C   0  0  0  0  0  0  0  0  0  0  0  0
   -0.0590   -6.2760   35.0830 C   0  0  0  0  0  0  0  0  0  0  0  0
   -1.0270   -7.1150   34.6040 C   0  0  0  0  0  0  0  0  0  0  0  0
   -1.0530   -7.4400   33.2240 C   0  0  0  0  0  0  0  0  0  0  0  0
   -1.3490   -0.3480   27.8130 F   0  0  0  0  0  0  0  0  0  0  0  0
   -1.8590   -8.2010   32.4890 N   0  0  0  0  0  0  0  0  0  0  0  0
   -1.4010   -8.1450   31.1740 N   0  0  0  0  0  0  0  0  0  0  0  0
   -0.0720   -6.8940   32.4010 N   0  0  0  0  0  0  0  0  0  0  0  0
    0.3260   -4.0470   30.5310 N   0  0  0  0  0  0  0  0  0  0  0  0
    2.2130   -5.5520   31.8600 S   0  0  0  0  0  0  0  0  0  0  0  0
  3  2  2  0
  6  5  2  0
  6  2  1  0
  7  3  1  0
  8  7  2  0
  8  5  1  0
  8  1  1  0
  9  1  2  0
 11 10  2  0
 12 11  1  0
 13 12  2  0
 14 13  1  0
 15  2  1  0
 16 14  2  0
 17 16  1  0
 17  4  2  0
 18  4  1  0
 18 14  1  0
 18 10  1  0
 19  9  1  0
 19  5  1  0
 20 10  1  0
 20  9  1  0
M  END
>  <id>  (2) 
180

>  <inchikey>  (2) 
RAAZIUQROHXXRO-UHFFFAOYSA-N

>  <alias>  (2) 
B1219a

>  <smiles>  (2) 
Fc1ccc2nc(Sc3cccc4nncn34)[nH]c2c1

>  <path>  (2) 
/opt/xchem-fragalysis-2/maxwin/BulkDock/TARGETS/D68EV3C/aligned_files/B1219a/B1219a.pdb

>  <distance_score>  (2) 
None

>  <energy_score>  (2) 
None

>  <compound>  (2) 
RAAZIUQROHXXRO-UHFFFAOYSA-N

>  <compound_id>  (2) 
142

>  <target>  (2) 
D68EV3C

$$$$
