7gp9-a
     RDKit          3D

 16 17  0  0  0  0  0  0  0  0999 V2000
    0.6840   -0.0070   28.3420 C   0  0  0  0  0  0  0  0  0  0  0  0
    0.3670    1.2690   27.9040 C   0  0  0  0  0  0  0  0  0  0  0  0
   -0.8920    1.4700   27.3700 C   0  0  0  0  0  0  0  0  0  0  0  0
   -1.7910    0.4380   27.2630 C   0  0  0  0  0  0  0  0  0  0  0  0
   -1.4910   -0.8250   27.7220 C   0  0  0  0  0  0  0  0  0  0  0  0
   -0.9470   -2.9450   29.6400 N   0  0  0  0  0  0  0  0  0  0  0  0
   -2.1700   -0.3300   31.4160 C   0  0  0  0  0  0  0  0  0  0  0  0
    0.3340   -3.3310   31.7260 O   0  0  0  0  0  0  0  0  0  0  0  0
   -0.8360   -1.0060   31.6160 C   0  0  0  0  0  0  0  0  0  0  0  0
    0.1310   -2.4250   28.7870 C   0  0  0  0  0  0  0  0  0  0  0  0
   -0.2320   -1.0560   28.2710 C   0  0  0  0  0  0  0  0  0  0  0  0
   -2.7670    2.2810   26.4600 C   0  0  0  0  0  0  0  0  0  0  0  0
   -2.1420   -3.2780   31.7870 O   0  0  0  0  0  0  0  0  0  0  0  0
   -2.9180    0.8630   26.5970 O   0  0  0  0  0  0  0  0  0  0  0  0
   -1.4630    2.6420   26.9260 O   0  0  0  0  0  0  0  0  0  0  0  0
   -0.9030   -2.7580   31.2800 S   0  0  1  0  0  0  0  0  0  0  0  0
  2  1  2  0
  3  2  1  0
  4  3  2  0
  5  4  1  0
  9  7  1  0
 10  6  1  0
 11 10  1  0
 11  5  2  0
 11  1  1  0
 14 12  1  0
 14  4  1  0
 15 12  1  0
 15  3  1  0
 16 13  2  0
 16  9  1  6
 16  8  2  0
 16  6  1  0
M  END
>  <id>  (1) 
13

>  <inchikey>  (1) 
UKPLBUIFSDRLEZ-UHFFFAOYSA-N

>  <alias>  (1) 
7gp9-a

>  <smiles>  (1) 
CCS(=O)(=O)NCc1ccc2c(c1)OCO2

>  <path>  (1) 
/opt/xchem-fragalysis-2/maxwin/BulkDock/TARGETS/D68EV3C/aligned_files/7gp9-a/7gp9-a.pdb

>  <distance_score>  (1) 
None

>  <energy_score>  (1) 
None

>  <compound>  (1) 
UKPLBUIFSDRLEZ-UHFFFAOYSA-N

>  <compound_id>  (1) 
12

>  <target>  (1) 
D68EV3C

$$$$
B0931a
     RDKit          3D

 17 19  0  0  0  0  0  0  0  0999 V2000
    0.1100   -7.1770   40.6300 N   0  0  0  0  0  0  0  0  0  0  0  0
    1.3360   -5.0850   32.1850 C   0  0  0  0  0  0  0  0  0  0  0  0
    1.0880   -5.3860   33.5440 C   0  0  0  0  0  0  0  0  0  0  0  0
   -0.2940   -6.7220   31.5160 C   0  0  0  0  0  0  0  0  0  0  0  0
    0.6700   -5.7350   31.1840 C   0  0  0  0  0  0  0  0  0  0  0  0
    0.1700   -6.3280   33.8790 C   0  0  0  0  0  0  0  0  0  0  0  0
    1.0230   -6.0070   36.5900 C   0  0  0  0  0  0  0  0  0  0  0  0
    0.7160   -6.4140   38.0040 C   0  0  0  0  0  0  0  0  0  0  0  0
    0.8710   -7.7250   38.4240 C   0  0  0  0  0  0  0  0  0  0  0  0
    0.5580   -8.0580   39.7280 C   0  0  0  0  0  0  0  0  0  0  0  0
   -0.0240   -5.9110   40.2160 C   0  0  0  0  0  0  0  0  0  0  0  0
    0.2580   -5.4930   38.9300 C   0  0  0  0  0  0  0  0  0  0  0  0
   -1.4980   -7.9500   32.8690 C   0  0  0  0  0  0  0  0  0  0  0  0
   -0.5300   -6.9850   32.8610 N   0  0  0  0  0  0  0  0  0  0  0  0
   -1.8360   -8.2790   31.6530 N   0  0  0  0  0  0  0  0  0  0  0  0
   -1.0730   -7.5060   30.7780 N   0  0  0  0  0  0  0  0  0  0  0  0
   -0.1950   -6.8350   35.5170 S   0  0  0  0  0  0  0  0  0  0  0  0
  3  2  1  0
  5  4  1  0
  5  2  2  0
  6  3  2  0
  8  7  1  0
  9  8  2  0
 10  9  1  0
 10  1  2  0
 11  1  1  0
 12  8  1  0
 12 11  2  0
 14  4  1  0
 14 13  1  0
 14  6  1  0
 15 13  2  0
 16 15  1  0
 16  4  2  0
 17  7  1  0
 17  6  1  0
M  END
>  <id>  (2) 
164

>  <inchikey>  (2) 
YKUFZDVJLQYFAS-UHFFFAOYSA-N

>  <alias>  (2) 
B0931a

>  <smiles>  (2) 
c1cc(SCc2ccncc2)n2cnnc2c1

>  <path>  (2) 
/opt/xchem-fragalysis-2/maxwin/BulkDock/TARGETS/D68EV3C/aligned_files/B0931a/B0931a.pdb

>  <distance_score>  (2) 
None

>  <energy_score>  (2) 
None

>  <compound>  (2) 
YKUFZDVJLQYFAS-UHFFFAOYSA-N

>  <compound_id>  (2) 
129

>  <target>  (2) 
D68EV3C

$$$$
