7gp9-a
     RDKit          3D

 16 17  0  0  0  0  0  0  0  0999 V2000
    0.6840   -0.0070   28.3420 C   0  0  0  0  0  0  0  0  0  0  0  0
    0.3670    1.2690   27.9040 C   0  0  0  0  0  0  0  0  0  0  0  0
   -0.8920    1.4700   27.3700 C   0  0  0  0  0  0  0  0  0  0  0  0
   -1.7910    0.4380   27.2630 C   0  0  0  0  0  0  0  0  0  0  0  0
   -1.4910   -0.8250   27.7220 C   0  0  0  0  0  0  0  0  0  0  0  0
   -0.9470   -2.9450   29.6400 N   0  0  0  0  0  0  0  0  0  0  0  0
   -2.1700   -0.3300   31.4160 C   0  0  0  0  0  0  0  0  0  0  0  0
    0.3340   -3.3310   31.7260 O   0  0  0  0  0  0  0  0  0  0  0  0
   -0.8360   -1.0060   31.6160 C   0  0  0  0  0  0  0  0  0  0  0  0
    0.1310   -2.4250   28.7870 C   0  0  0  0  0  0  0  0  0  0  0  0
   -0.2320   -1.0560   28.2710 C   0  0  0  0  0  0  0  0  0  0  0  0
   -2.7670    2.2810   26.4600 C   0  0  0  0  0  0  0  0  0  0  0  0
   -2.1420   -3.2780   31.7870 O   0  0  0  0  0  0  0  0  0  0  0  0
   -2.9180    0.8630   26.5970 O   0  0  0  0  0  0  0  0  0  0  0  0
   -1.4630    2.6420   26.9260 O   0  0  0  0  0  0  0  0  0  0  0  0
   -0.9030   -2.7580   31.2800 S   0  0  1  0  0  0  0  0  0  0  0  0
  2  1  2  0
  3  2  1  0
  4  3  2  0
  5  4  1  0
  9  7  1  0
 10  6  1  0
 11 10  1  0
 11  5  2  0
 11  1  1  0
 14 12  1  0
 14  4  1  0
 15 12  1  0
 15  3  1  0
 16 13  2  0
 16  9  1  6
 16  8  2  0
 16  6  1  0
M  END
>  <id>  (1) 
13

>  <inchikey>  (1) 
UKPLBUIFSDRLEZ-UHFFFAOYSA-N

>  <alias>  (1) 
7gp9-a

>  <smiles>  (1) 
CCS(=O)(=O)NCc1ccc2c(c1)OCO2

>  <path>  (1) 
/opt/xchem-fragalysis-2/maxwin/BulkDock/TARGETS/D68EV3C/aligned_files/7gp9-a/7gp9-a.pdb

>  <distance_score>  (1) 
None

>  <energy_score>  (1) 
None

>  <compound>  (1) 
UKPLBUIFSDRLEZ-UHFFFAOYSA-N

>  <compound_id>  (1) 
12

>  <target>  (1) 
D68EV3C

$$$$
B1020a
     RDKit          3D

 18 20  0  0  0  0  0  0  0  0999 V2000
    0.1430   -4.9380   37.1470 N   0  0  0  0  0  0  0  0  0  0  0  0
    1.0820   -4.2270   38.0380 C   0  0  0  0  0  0  0  0  0  0  0  0
    0.0410   -7.3940   37.2400 O   0  0  0  0  0  0  0  0  0  0  0  0
    0.3140   -3.3090   38.9720 C   0  0  0  0  0  0  0  0  0  0  0  0
   -1.7630   -3.5340   37.7390 C   0  0  0  0  0  0  0  0  0  0  0  0
   -1.2380   -4.9530   37.6610 C   0  0  0  0  0  0  0  0  0  0  0  0
    0.4380   -5.2370   34.1400 C   0  0  0  0  0  0  0  0  0  0  0  0
    0.8470   -5.8700   32.8160 C   0  0  0  0  0  0  0  0  0  0  0  0
   -0.2480   -6.7770   32.3460 C   0  0  0  0  0  0  0  0  0  0  0  0
   -1.1180   -7.3780   33.1870 C   0  0  0  0  0  0  0  0  0  0  0  0
   -1.1330   -7.1170   34.6590 C   0  0  0  0  0  0  0  0  0  0  0  0
   -0.7520   -2.5970   38.2570 N   0  0  0  0  0  0  0  0  0  0  0  0
    0.0060   -6.2800   35.0920 N   0  0  0  0  0  0  0  0  0  0  0  0
   -0.5190   -7.1920   31.0800 N   0  0  0  0  0  0  0  0  0  0  0  0
   -1.5200   -8.0470   31.1220 N   0  0  0  0  0  0  0  0  0  0  0  0
   -1.8880   -8.1640   32.4110 N   0  0  0  0  0  0  0  0  0  0  0  0
    2.0780   -6.2400   36.4020 O   0  0  0  0  0  0  0  0  0  0  0  0
    0.6680   -6.3230   36.5450 S   0  0  1  0  0  0  0  0  0  0  0  0
  2  1  1  0
  4  2  1  0
  6  5  1  0
  6  1  1  0
  8  7  1  0
  9  8  1  0
 10  9  2  0
 11 10  1  0
 12  5  1  0
 12  4  1  0
 13 11  1  0
 13  7  1  0
 14  9  1  0
 15 14  2  0
 16 15  1  0
 16 10  1  0
 18 17  2  0
 18 13  1  6
 18  3  2  0
 18  1  1  0
M  END
>  <id>  (2) 
168

>  <inchikey>  (2) 
RMTPRUDWXABPBE-UHFFFAOYSA-N

>  <alias>  (2) 
B1020a

>  <smiles>  (2) 
O=S(=O)(N1CCNCC1)N1CCc2nn[nH]c2C1

>  <path>  (2) 
/opt/xchem-fragalysis-2/maxwin/BulkDock/TARGETS/D68EV3C/aligned_files/B1020a/B1020a.pdb

>  <distance_score>  (2) 
None

>  <energy_score>  (2) 
None

>  <compound>  (2) 
RMTPRUDWXABPBE-UHFFFAOYSA-N

>  <compound_id>  (2) 
131

>  <target>  (2) 
D68EV3C

$$$$
