7gp9-a
     RDKit          3D

 16 17  0  0  0  0  0  0  0  0999 V2000
    0.6840   -0.0070   28.3420 C   0  0  0  0  0  0  0  0  0  0  0  0
    0.3670    1.2690   27.9040 C   0  0  0  0  0  0  0  0  0  0  0  0
   -0.8920    1.4700   27.3700 C   0  0  0  0  0  0  0  0  0  0  0  0
   -1.7910    0.4380   27.2630 C   0  0  0  0  0  0  0  0  0  0  0  0
   -1.4910   -0.8250   27.7220 C   0  0  0  0  0  0  0  0  0  0  0  0
   -0.9470   -2.9450   29.6400 N   0  0  0  0  0  0  0  0  0  0  0  0
   -2.1700   -0.3300   31.4160 C   0  0  0  0  0  0  0  0  0  0  0  0
    0.3340   -3.3310   31.7260 O   0  0  0  0  0  0  0  0  0  0  0  0
   -0.8360   -1.0060   31.6160 C   0  0  0  0  0  0  0  0  0  0  0  0
    0.1310   -2.4250   28.7870 C   0  0  0  0  0  0  0  0  0  0  0  0
   -0.2320   -1.0560   28.2710 C   0  0  0  0  0  0  0  0  0  0  0  0
   -2.7670    2.2810   26.4600 C   0  0  0  0  0  0  0  0  0  0  0  0
   -2.1420   -3.2780   31.7870 O   0  0  0  0  0  0  0  0  0  0  0  0
   -2.9180    0.8630   26.5970 O   0  0  0  0  0  0  0  0  0  0  0  0
   -1.4630    2.6420   26.9260 O   0  0  0  0  0  0  0  0  0  0  0  0
   -0.9030   -2.7580   31.2800 S   0  0  1  0  0  0  0  0  0  0  0  0
  2  1  2  0
  3  2  1  0
  4  3  2  0
  5  4  1  0
  9  7  1  0
 10  6  1  0
 11 10  1  0
 11  5  2  0
 11  1  1  0
 14 12  1  0
 14  4  1  0
 15 12  1  0
 15  3  1  0
 16 13  2  0
 16  9  1  6
 16  8  2  0
 16  6  1  0
M  END
>  <id>  (1) 
13

>  <inchikey>  (1) 
UKPLBUIFSDRLEZ-UHFFFAOYSA-N

>  <alias>  (1) 
7gp9-a

>  <smiles>  (1) 
CCS(=O)(=O)NCc1ccc2c(c1)OCO2

>  <path>  (1) 
/opt/xchem-fragalysis-2/maxwin/BulkDock/TARGETS/D68EV3C/aligned_files/7gp9-a/7gp9-a.pdb

>  <distance_score>  (1) 
None

>  <energy_score>  (1) 
None

>  <compound>  (1) 
UKPLBUIFSDRLEZ-UHFFFAOYSA-N

>  <compound_id>  (1) 
12

>  <target>  (1) 
D68EV3C

$$$$
7gpm-a
     RDKit          3D

 13 14  0  0  0  0  0  0  0  0999 V2000
   -1.9830    2.7580   28.0750 N   0  0  0  0  0  0  0  0  0  0  0  0
   -1.9390    1.6060   27.4720 C   0  0  0  0  0  0  0  0  0  0  0  0
   -1.7120    0.2830   28.1540 C   0  0  2  0  0  0  0  0  0  0  0  0
   -1.8210    0.3710   29.6820 C   0  0  0  0  0  0  0  0  0  0  0  0
   -0.4030    0.7020   30.1340 C   0  0  0  0  0  0  0  0  0  0  0  0
    0.4890    0.0140   29.1060 C   0  0  0  0  0  0  0  0  0  0  0  0
   -2.0140    1.6690   26.1060 N   0  0  0  0  0  0  0  0  0  0  0  0
   -1.3570    2.8430   23.4770 C   0  0  0  0  0  0  0  0  0  0  0  0
   -2.0730    3.6740   27.0040 O   0  0  0  0  0  0  0  0  0  0  0  0
   -2.0240    3.6470   24.5690 C   0  0  1  0  0  0  0  0  0  0  0  0
   -3.4180    4.0310   24.1490 C   0  0  0  0  0  0  0  0  0  0  0  0
   -2.0690    2.9380   25.8820 C   0  0  0  0  0  0  0  0  0  0  0  0
   -0.3650   -0.2580   27.9310 N   0  0  0  0  0  0  0  0  0  0  0  0
  2  1  2  0
  3  2  1  6
  4  3  1  0
  5  4  1  0
  6  5  1  0
  7  2  1  0
  9  1  1  0
 10  8  1  6
 11 10  1  0
 12 10  1  0
 12  9  1  0
 12  7  2  0
 13  6  1  0
 13  3  1  0
M  END
>  <id>  (2) 
70

>  <inchikey>  (2) 
WKTDGUSTKNDUEI-ZETCQYMHSA-N

>  <alias>  (2) 
7gpm-a

>  <smiles>  (2) 
CC(C)c1nc([C@@H]2CCCN2)no1

>  <path>  (2) 
/opt/xchem-fragalysis-2/maxwin/BulkDock/TARGETS/D68EV3C/aligned_files/7gpm-a/7gpm-a.pdb

>  <distance_score>  (2) 
None

>  <energy_score>  (2) 
None

>  <compound>  (2) 
WKTDGUSTKNDUEI-UHFFFAOYSA-N

>  <compound_id>  (2) 
56

>  <target>  (2) 
D68EV3C

$$$$
