7gpm-a
     RDKit          3D

 13 14  0  0  0  0  0  0  0  0999 V2000
   -1.9830    2.7580   28.0750 N   0  0  0  0  0  0  0  0  0  0  0  0
   -1.9390    1.6060   27.4720 C   0  0  0  0  0  0  0  0  0  0  0  0
   -1.7120    0.2830   28.1540 C   0  0  2  0  0  0  0  0  0  0  0  0
   -1.8210    0.3710   29.6820 C   0  0  0  0  0  0  0  0  0  0  0  0
   -0.4030    0.7020   30.1340 C   0  0  0  0  0  0  0  0  0  0  0  0
    0.4890    0.0140   29.1060 C   0  0  0  0  0  0  0  0  0  0  0  0
   -2.0140    1.6690   26.1060 N   0  0  0  0  0  0  0  0  0  0  0  0
   -1.3570    2.8430   23.4770 C   0  0  0  0  0  0  0  0  0  0  0  0
   -2.0730    3.6740   27.0040 O   0  0  0  0  0  0  0  0  0  0  0  0
   -2.0240    3.6470   24.5690 C   0  0  1  0  0  0  0  0  0  0  0  0
   -3.4180    4.0310   24.1490 C   0  0  0  0  0  0  0  0  0  0  0  0
   -2.0690    2.9380   25.8820 C   0  0  0  0  0  0  0  0  0  0  0  0
   -0.3650   -0.2580   27.9310 N   0  0  0  0  0  0  0  0  0  0  0  0
  2  1  2  0
  3  2  1  6
  4  3  1  0
  5  4  1  0
  6  5  1  0
  7  2  1  0
  9  1  1  0
 10  8  1  6
 11 10  1  0
 12 10  1  0
 12  9  1  0
 12  7  2  0
 13  6  1  0
 13  3  1  0
M  END
>  <id>  (1) 
70

>  <inchikey>  (1) 
WKTDGUSTKNDUEI-ZETCQYMHSA-N

>  <alias>  (1) 
7gpm-a

>  <smiles>  (1) 
CC(C)c1nc([C@@H]2CCCN2)no1

>  <path>  (1) 
/opt/xchem-fragalysis-2/maxwin/BulkDock/TARGETS/D68EV3C/aligned_files/7gpm-a/7gpm-a.pdb

>  <distance_score>  (1) 
None

>  <energy_score>  (1) 
None

>  <compound>  (1) 
WKTDGUSTKNDUEI-UHFFFAOYSA-N

>  <compound_id>  (1) 
56

>  <target>  (1) 
D68EV3C

$$$$
B0455a
     RDKit          3D

 20 22  0  0  0  0  0  0  0  0999 V2000
    2.5750    0.7990   34.9910 N   0  0  0  0  0  0  0  0  0  0  0  0
    1.7770    0.0890   35.9740 C   0  0  0  0  0  0  0  0  0  0  0  0
    4.2300    0.6260   33.4930 O   0  0  0  0  0  0  0  0  0  0  0  0
    3.2090    0.1710   34.0010 C   0  0  0  0  0  0  0  0  0  0  0  0
   -1.4280   -7.5620   33.2780 C   0  0  0  0  0  0  0  0  0  0  0  0
    0.0970   -5.5340   33.0860 C   0  0  0  0  0  0  0  0  0  0  0  0
    1.2760   -2.3370   31.9260 C   0  0  0  0  0  0  0  0  0  0  0  0
    1.8430   -1.1510   32.3590 C   0  0  0  0  0  0  0  0  0  0  0  0
    2.6190   -1.1150   33.5140 C   0  0  0  0  0  0  0  0  0  0  0  0
    2.8280   -2.3020   34.2120 C   0  0  0  0  0  0  0  0  0  0  0  0
    2.2570   -3.4870   33.7820 C   0  0  0  0  0  0  0  0  0  0  0  0
    1.4650   -3.5210   32.6360 C   0  0  0  0  0  0  0  0  0  0  0  0
    0.8030   -4.7760   32.2100 C   0  0  0  0  0  0  0  0  0  0  0  0
    0.8280   -5.1890   30.8310 C   0  0  0  0  0  0  0  0  0  0  0  0
    0.1580   -6.2820   30.3940 C   0  0  0  0  0  0  0  0  0  0  0  0
   -0.5990   -7.0440   31.3190 C   0  0  0  0  0  0  0  0  0  0  0  0
   -1.3720   -8.1100   31.1530 N   0  0  0  0  0  0  0  0  0  0  0  0
   -1.9020   -8.4350   32.4000 N   0  0  0  0  0  0  0  0  0  0  0  0
   -1.6720   -7.5250   34.5930 N   0  0  0  0  0  0  0  0  0  0  0  0
   -0.5990   -6.6450   32.6530 N   0  0  0  0  0  0  0  0  0  0  0  0
  2  1  1  0
  4  3  2  0
  4  1  1  0
  8  7  2  0
  9  8  1  0
  9  4  1  0
 10  9  2  0
 11 10  1  0
 12  7  1  0
 12 11  2  0
 13  6  2  0
 13 12  1  0
 14 13  1  0
 15 14  2  0
 16 15  1  0
 17 16  2  0
 18 17  1  0
 18  5  2  0
 19  5  1  0
 20 16  1  0
 20  6  1  0
 20  5  1  0
M  END
>  <id>  (2) 
136

>  <inchikey>  (2) 
CKVYAEVDVNCGJD-UHFFFAOYSA-N

>  <alias>  (2) 
B0455a

>  <smiles>  (2) 
CNC(=O)c1ccc(-c2ccc3nnc(N)n3c2)cc1

>  <path>  (2) 
/opt/xchem-fragalysis-2/maxwin/BulkDock/TARGETS/D68EV3C/aligned_files/B0455a/B0455a.pdb

>  <distance_score>  (2) 
None

>  <energy_score>  (2) 
None

>  <compound>  (2) 
CKVYAEVDVNCGJD-UHFFFAOYSA-N

>  <compound_id>  (2) 
110

>  <target>  (2) 
D68EV3C

$$$$
