7gp2-a
     RDKit          3D

 11 11  0  0  0  0  0  0  0  0999 V2000
   -1.2210    1.4250   28.4530 N   0  0  0  0  0  0  0  0  0  0  0  0
   -1.7560    3.3480   26.3680 C   0  0  2  0  0  0  0  0  0  0  0  0
   -2.6070    2.1140   26.5440 C   0  0  0  0  0  0  0  0  0  0  0  0
   -1.7900    0.9890   27.1630 C   0  0  0  0  0  0  0  0  0  0  0  0
    0.5030   -0.6830   28.4890 C   0  0  0  0  0  0  0  0  0  0  0  0
   -0.6660    0.2330   29.4230 S   0  0  1  0  0  0  0  0  0  0  0  0
    0.0210    0.8620   30.5070 O   0  0  0  0  0  0  0  0  0  0  0  0
   -1.7780   -0.6160   29.7160 O   0  0  0  0  0  0  0  0  0  0  0  0
   -0.3730    2.6250   28.3190 C   0  0  0  0  0  0  0  0  0  0  0  0
   -1.1750    3.7640   27.7000 C   0  0  0  0  0  0  0  0  0  0  0  0
   -2.5260    4.4020   25.7890 O   0  0  0  0  0  0  0  0  0  0  0  0
  3  2  1  0
  4  3  1  0
  4  1  1  0
  6  5  1  6
  6  1  1  0
  7  6  2  0
  8  6  2  0
  9  1  1  0
 10  2  1  0
 10  9  1  0
  2 11  1  1
M  END
>  <id>  (1) 
44

>  <inchikey>  (1) 
UPEFDWJLNXWMOW-UHFFFAOYSA-N

>  <alias>  (1) 
7gp2-a

>  <smiles>  (1) 
CS(=O)(=O)N1CCC(O)CC1

>  <path>  (1) 
/opt/xchem-fragalysis-2/maxwin/BulkDock/TARGETS/D68EV3C/aligned_files/7gp2-a/7gp2-a.pdb

>  <distance_score>  (1) 
None

>  <energy_score>  (1) 
None

>  <compound>  (1) 
UPEFDWJLNXWMOW-UHFFFAOYSA-N

>  <compound_id>  (1) 
36

>  <target>  (1) 
D68EV3C

$$$$
B0723a
     RDKit          3D

 23 26  0  0  0  0  0  0  0  0999 V2000
   -1.8400   -1.3080   28.1090 N   0  0  0  0  0  0  0  0  0  0  0  0
   -1.6700    3.6290   26.6710 C   0  0  0  0  0  0  0  0  0  0  0  0
   -2.5350    2.5990   26.3530 C   0  0  0  0  0  0  0  0  0  0  0  0
    0.0940   -6.0600   34.5500 C   0  0  0  0  0  0  0  0  0  0  0  0
   -0.7780   -7.0730   34.2440 C   0  0  0  0  0  0  0  0  0  0  0  0
   -1.0260   -7.3900   32.8840 C   0  0  0  0  0  0  0  0  0  0  0  0
   -0.7490   -7.2230   30.7210 C   0  0  0  0  0  0  0  0  0  0  0  0
   -0.3360    2.1050   27.9570 C   0  0  0  0  0  0  0  0  0  0  0  0
   -0.5760    3.3830   27.4750 C   0  0  0  0  0  0  0  0  0  0  0  0
   -2.2980    1.3180   26.8230 C   0  0  0  0  0  0  0  0  0  0  0  0
   -1.1960    1.0560   27.6360 C   0  0  0  0  0  0  0  0  0  0  0  0
   -0.9960   -0.2950   28.1940 C   0  0  0  0  0  0  0  0  0  0  0  0
    0.0660   -2.1540   28.8290 C   0  0  0  0  0  0  0  0  0  0  0  0
    1.0920   -3.1420   29.3600 C   0  0  0  0  0  0  0  0  0  0  0  0
    1.2550   -4.9300   31.0930 C   0  0  0  0  0  0  0  0  0  0  0  0
    0.5310   -5.6110   32.2120 C   0  0  0  0  0  0  0  0  0  0  0  0
    0.7430   -5.3220   33.5250 C   0  0  0  0  0  0  0  0  0  0  0  0
   -1.1810   -2.4710   28.5090 N   0  0  0  0  0  0  0  0  0  0  0  0
    0.3930   -4.0420   30.3020 N   0  0  0  0  0  0  0  0  0  0  0  0
   -1.7730   -8.3220   32.2980 N   0  0  0  0  0  0  0  0  0  0  0  0
   -1.5790   -8.2070   30.9230 N   0  0  0  0  0  0  0  0  0  0  0  0
   -0.3630   -6.6580   31.9050 N   0  0  0  0  0  0  0  0  0  0  0  0
    0.1960   -0.8140   28.6280 N   0  0  0  0  0  0  0  0  0  0  0  0
  3  2  2  0
  5  4  2  0
  6  5  1  0
  9  2  1  0
  9  8  2  0
 10  3  1  0
 11 10  2  0
 11  8  1  0
 12 11  1  0
 12  1  2  0
 14 13  1  0
 16 15  1  0
 17 16  2  0
 17  4  1  0
 18 13  2  0
 18  1  1  0
 19 15  1  0
 19 14  1  0
 20  6  2  0
 21 20  1  0
 21  7  2  0
 22 16  1  0
 22  7  1  0
 22  6  1  0
 23 13  1  0
 23 12  1  0
M  END
>  <id>  (2) 
147

>  <inchikey>  (2) 
XEHZOMCBCLBNAD-UHFFFAOYSA-N

>  <alias>  (2) 
B0723a

>  <smiles>  (2) 
c1ccc(-c2nnc(CNCc3cccc4nncn34)[nH]2)cc1

>  <path>  (2) 
/opt/xchem-fragalysis-2/maxwin/BulkDock/TARGETS/D68EV3C/aligned_files/B0723a/B0723a.pdb

>  <distance_score>  (2) 
None

>  <energy_score>  (2) 
None

>  <compound>  (2) 
XEHZOMCBCLBNAD-UHFFFAOYSA-N

>  <compound_id>  (2) 
119

>  <target>  (2) 
D68EV3C

$$$$
