B0738a
     RDKit          3D

 20 23  0  0  0  0  0  0  0  0999 V2000
    5.1460   -9.7160   36.7120 N   0  0  0  0  0  0  0  0  0  0  0  0
    5.0820   -9.7550   38.9290 C   0  0  0  0  0  0  0  0  0  0  0  0
    2.3260   -7.3770   36.6780 O   0  0  0  0  0  0  0  0  0  0  0  0
    5.7020  -10.2780   37.8250 C   0  0  0  0  0  0  0  0  0  0  0  0
   -1.3210   -7.7070   33.4480 C   0  0  0  0  0  0  0  0  0  0  0  0
    4.1120   -8.8390   38.4740 C   0  0  0  0  0  0  0  0  0  0  0  0
    4.1590   -8.8360   37.0830 C   0  0  0  0  0  0  0  0  0  0  0  0
    3.3220   -8.1590   36.1530 C   0  0  0  0  0  0  0  0  0  0  0  0
    1.6840   -6.9580   35.5550 C   0  0  0  0  0  0  0  0  0  0  0  0
    0.2650   -5.7560   33.8330 C   0  0  0  0  0  0  0  0  0  0  0  0
    0.9950   -4.8230   33.1710 C   0  0  0  0  0  0  0  0  0  0  0  0
    1.0650   -4.8500   31.7500 C   0  0  0  0  0  0  0  0  0  0  0  0
    0.3980   -5.8040   31.0250 C   0  0  0  0  0  0  0  0  0  0  0  0
   -0.3950   -6.7660   31.7000 C   0  0  0  0  0  0  0  0  0  0  0  0
    3.2940   -8.2030   34.8670 N   0  0  0  0  0  0  0  0  0  0  0  0
    2.2080   -7.4170   34.4740 N   0  0  0  0  0  0  0  0  0  0  0  0
   -1.1830   -7.7480   31.2710 N   0  0  0  0  0  0  0  0  0  0  0  0
   -1.7730   -8.3330   32.3950 N   0  0  0  0  0  0  0  0  0  0  0  0
   -0.4510   -6.7130   33.0920 N   0  0  0  0  0  0  0  0  0  0  0  0
    0.3100   -5.8750   35.5970 S   0  0  0  0  0  0  0  0  0  0  0  0
  4  1  1  0
  4  2  2  0
  6  2  1  0
  7  1  1  0
  7  6  2  0
  8  7  1  0
  8  3  1  0
  9  3  1  0
 11 10  2  0
 12 11  1  0
 13 12  2  0
 14 13  1  0
 15  8  2  0
 16 15  1  0
 16  9  2  0
 17 14  2  0
 18 17  1  0
 18  5  2  0
 19 14  1  0
 19 10  1  0
 19  5  1  0
 20 10  1  0
 20  9  1  0
M  END
>  <id>  (1) 
148

>  <inchikey>  (1) 
LJMUUEZBPOHHNK-UHFFFAOYSA-N

>  <alias>  (1) 
B0738a

>  <smiles>  (1) 
c1c[nH]c(-c2nnc(Sc3cccc4nncn34)o2)c1

>  <path>  (1) 
/opt/xchem-fragalysis-2/maxwin/BulkDock/TARGETS/D68EV3C/aligned_files/B0738a/B0738a.pdb

>  <distance_score>  (1) 
None

>  <energy_score>  (1) 
None

>  <compound>  (1) 
LJMUUEZBPOHHNK-UHFFFAOYSA-N

>  <compound_id>  (1) 
120

>  <target>  (1) 
D68EV3C

$$$$
B1460a
     RDKit          3D

 20 21  0  0  0  0  0  0  0  0999 V2000
   -1.9700    1.1900   26.7420 N   0  0  0  0  0  0  0  0  0  0  0  0
   -1.7540    0.3980   27.8120 C   0  0  0  0  0  0  0  0  0  0  0  0
   -0.8550   -1.5970   32.4600 O   0  0  0  0  0  0  0  0  0  0  0  0
   -1.3110    0.9400   29.0420 C   0  0  0  0  0  0  0  0  0  0  0  0
   -1.7670   -1.7320   28.7200 C   0  0  0  0  0  0  0  0  0  0  0  0
   -1.1100    0.0910   30.1130 C   0  0  0  0  0  0  0  0  0  0  0  0
   -1.3340   -1.2670   29.9480 C   0  0  0  0  0  0  0  0  0  0  0  0
    0.5020   -4.0720   29.8470 C   0  0  0  0  0  0  0  0  0  0  0  0
    1.2360   -5.3480   30.2670 C   0  0  0  0  0  0  0  0  0  0  0  0
    0.4950   -6.1270   31.3100 C   0  0  0  0  0  0  0  0  0  0  0  0
    0.0300   -6.4940   33.5210 C   0  0  0  0  0  0  0  0  0  0  0  0
   -0.9370   -7.4280   33.2030 C   0  0  0  0  0  0  0  0  0  0  0  0
   -1.1190   -7.6660   31.8390 C   0  0  0  0  0  0  0  0  0  0  0  0
    0.3440   -3.1500   30.9860 N   0  0  0  0  0  0  0  0  0  0  0  0
    0.7610   -5.8360   32.6130 N   0  0  0  0  0  0  0  0  0  0  0  0
   -0.4070   -7.0220   30.8820 N   0  0  0  0  0  0  0  0  0  0  0  0
   -1.9830   -0.9290   27.6670 N   0  0  0  0  0  0  0  0  0  0  0  0
   -2.0860   -3.3680   31.2560 O   0  0  0  0  0  0  0  0  0  0  0  0
   -2.0040   -8.5410   31.4510 O   0  0  0  0  0  0  0  0  0  0  0  0
   -1.0510   -2.3820   31.2780 S   0  0  1  0  0  0  0  0  0  0  0  0
  2  1  1  0
  4  2  2  0
  6  4  1  0
  7  6  2  0
  7  5  1  0
  9  8  1  0
 10  9  1  0
 12 11  2  0
 13 12  1  0
 14  8  1  0
 15 10  2  0
 15 11  1  0
 16 13  2  0
 16 10  1  0
 17  5  2  0
 17  2  1  0
 19 13  1  0
 20 18  2  0
 20 14  1  6
 20  7  1  0
 20  3  2  0
M  END
>  <id>  (2) 
198

>  <inchikey>  (2) 
OCZUQLYBPXFJIF-UHFFFAOYSA-N

>  <alias>  (2) 
B1460a

>  <smiles>  (2) 
Nc1ccc(S(=O)(=O)NCCc2nccc(O)n2)cn1

>  <path>  (2) 
/opt/xchem-fragalysis-2/maxwin/BulkDock/TARGETS/D68EV3C/aligned_files/B1460a/B1460a_hippo.pdb

>  <distance_score>  (2) 
None

>  <energy_score>  (2) 
None

>  <compound>  (2) 
OCZUQLYBPXFJIF-UHFFFAOYSA-N

>  <compound_id>  (2) 
154

>  <target>  (2) 
D68EV3C

$$$$
