B0738a
     RDKit          3D

 20 23  0  0  0  0  0  0  0  0999 V2000
    5.1460   -9.7160   36.7120 N   0  0  0  0  0  0  0  0  0  0  0  0
    5.0820   -9.7550   38.9290 C   0  0  0  0  0  0  0  0  0  0  0  0
    2.3260   -7.3770   36.6780 O   0  0  0  0  0  0  0  0  0  0  0  0
    5.7020  -10.2780   37.8250 C   0  0  0  0  0  0  0  0  0  0  0  0
   -1.3210   -7.7070   33.4480 C   0  0  0  0  0  0  0  0  0  0  0  0
    4.1120   -8.8390   38.4740 C   0  0  0  0  0  0  0  0  0  0  0  0
    4.1590   -8.8360   37.0830 C   0  0  0  0  0  0  0  0  0  0  0  0
    3.3220   -8.1590   36.1530 C   0  0  0  0  0  0  0  0  0  0  0  0
    1.6840   -6.9580   35.5550 C   0  0  0  0  0  0  0  0  0  0  0  0
    0.2650   -5.7560   33.8330 C   0  0  0  0  0  0  0  0  0  0  0  0
    0.9950   -4.8230   33.1710 C   0  0  0  0  0  0  0  0  0  0  0  0
    1.0650   -4.8500   31.7500 C   0  0  0  0  0  0  0  0  0  0  0  0
    0.3980   -5.8040   31.0250 C   0  0  0  0  0  0  0  0  0  0  0  0
   -0.3950   -6.7660   31.7000 C   0  0  0  0  0  0  0  0  0  0  0  0
    3.2940   -8.2030   34.8670 N   0  0  0  0  0  0  0  0  0  0  0  0
    2.2080   -7.4170   34.4740 N   0  0  0  0  0  0  0  0  0  0  0  0
   -1.1830   -7.7480   31.2710 N   0  0  0  0  0  0  0  0  0  0  0  0
   -1.7730   -8.3330   32.3950 N   0  0  0  0  0  0  0  0  0  0  0  0
   -0.4510   -6.7130   33.0920 N   0  0  0  0  0  0  0  0  0  0  0  0
    0.3100   -5.8750   35.5970 S   0  0  0  0  0  0  0  0  0  0  0  0
  4  1  1  0
  4  2  2  0
  6  2  1  0
  7  1  1  0
  7  6  2  0
  8  7  1  0
  8  3  1  0
  9  3  1  0
 11 10  2  0
 12 11  1  0
 13 12  2  0
 14 13  1  0
 15  8  2  0
 16 15  1  0
 16  9  2  0
 17 14  2  0
 18 17  1  0
 18  5  2  0
 19 14  1  0
 19 10  1  0
 19  5  1  0
 20 10  1  0
 20  9  1  0
M  END
>  <id>  (1) 
148

>  <inchikey>  (1) 
LJMUUEZBPOHHNK-UHFFFAOYSA-N

>  <alias>  (1) 
B0738a

>  <smiles>  (1) 
c1c[nH]c(-c2nnc(Sc3cccc4nncn34)o2)c1

>  <path>  (1) 
/opt/xchem-fragalysis-2/maxwin/BulkDock/TARGETS/D68EV3C/aligned_files/B0738a/B0738a.pdb

>  <distance_score>  (1) 
None

>  <energy_score>  (1) 
None

>  <compound>  (1) 
LJMUUEZBPOHHNK-UHFFFAOYSA-N

>  <compound_id>  (1) 
120

>  <target>  (1) 
D68EV3C

$$$$
B1457a
     RDKit          3D

 19 20  0  0  0  0  0  0  0  0999 V2000
   -0.4490   -6.9810   31.1520 N   0  0  0  0  0  0  0  0  0  0  0  0
   -0.4180   -6.3460   35.3480 C   0  0  0  0  0  0  0  0  0  0  0  0
   -1.9930   -8.6210   31.3940 O   0  0  0  0  0  0  0  0  0  0  0  0
   -0.4650   -6.6080   33.8780 C   0  0  0  0  0  0  0  0  0  0  0  0
   -1.2890   -7.5780   33.3390 C   0  0  0  0  0  0  0  0  0  0  0  0
   -1.2360   -7.7250   31.9500 C   0  0  0  0  0  0  0  0  0  0  0  0
    0.2940   -6.0670   31.7860 C   0  0  0  0  0  0  0  0  0  0  0  0
    1.1380   -5.1730   30.9290 C   0  0  0  0  0  0  0  0  0  0  0  0
    0.3330   -3.9480   30.5190 C   0  0  0  0  0  0  0  0  0  0  0  0
   -1.3020   -1.3260   30.2100 C   0  0  0  0  0  0  0  0  0  0  0  0
   -1.5270   -1.6670   28.9150 C   0  0  0  0  0  0  0  0  0  0  0  0
   -0.9600    0.6400   29.2490 C   0  0  0  0  0  0  0  0  0  0  0  0
   -0.1360   -3.1940   31.6930 N   0  0  0  0  0  0  0  0  0  0  0  0
   -0.9610    0.0220   30.3860 N   0  0  0  0  0  0  0  0  0  0  0  0
    0.3320   -5.8500   33.1050 N   0  0  0  0  0  0  0  0  0  0  0  0
   -2.5650   -3.1380   31.3860 O   0  0  0  0  0  0  0  0  0  0  0  0
   -1.4440   -1.3990   32.7330 O   0  0  0  0  0  0  0  0  0  0  0  0
   -1.4530   -2.2660   31.5950 S   0  0  2  0  0  0  0  0  0  0  0  0
   -1.3490   -0.3160   27.8890 S   0  0  0  0  0  0  0  0  0  0  0  0
  4  2  1  0
  5  4  2  0
  6  3  1  0
  6  1  2  0
  6  5  1  0
  7  1  1  0
  8  7  1  0
  9  8  1  0
 11 10  2  0
 13  9  1  0
 14 12  2  0
 14 10  1  0
 15  7  2  0
 15  4  1  0
 18 16  2  0
 18 13  1  1
 18 10  1  0
 18 17  2  0
 19 12  1  0
 19 11  1  0
M  END
>  <id>  (2) 
196

>  <inchikey>  (2) 
NFFNEEJNFLWXMI-UHFFFAOYSA-N

>  <alias>  (2) 
B1457a

>  <smiles>  (2) 
Cc1cc(O)nc(CCNS(=O)(=O)c2cscn2)n1

>  <path>  (2) 
/opt/xchem-fragalysis-2/maxwin/BulkDock/TARGETS/D68EV3C/aligned_files/B1457a/B1457a_hippo.pdb

>  <distance_score>  (2) 
None

>  <energy_score>  (2) 
None

>  <compound>  (2) 
NFFNEEJNFLWXMI-UHFFFAOYSA-N

>  <compound_id>  (2) 
153

>  <target>  (2) 
D68EV3C

$$$$
