B0742a
     RDKit          3D

 21 24  0  0  0  0  0  0  0  0999 V2000
   -1.4300   -5.2280   36.8940 N   0  0  0  0  0  0  0  0  0  0  0  0
   -1.0630   -7.1140   41.6710 C   0  0  0  0  0  0  0  0  0  0  0  0
   -0.1930   -7.8100   40.8580 C   0  0  0  0  0  0  0  0  0  0  0  0
   -0.6760   -6.7470   31.0970 C   0  0  0  0  0  0  0  0  0  0  0  0
   -1.2640   -7.8670   32.8800 C   0  0  0  0  0  0  0  0  0  0  0  0
   -1.5930   -5.6560   39.8390 C   0  0  0  0  0  0  0  0  0  0  0  0
   -1.7590   -6.0370   41.1640 C   0  0  0  0  0  0  0  0  0  0  0  0
   -0.0240   -7.4410   39.5330 C   0  0  0  0  0  0  0  0  0  0  0  0
   -0.7310   -6.3620   39.0060 C   0  0  0  0  0  0  0  0  0  0  0  0
   -0.6160   -6.0220   37.5750 C   0  0  0  0  0  0  0  0  0  0  0  0
    0.0160   -6.0940   35.5100 C   0  0  0  0  0  0  0  0  0  0  0  0
    0.4600   -6.0450   33.1220 C   0  0  0  0  0  0  0  0  0  0  0  0
    1.1110   -5.0390   32.4230 C   0  0  0  0  0  0  0  0  0  0  0  0
    0.8810   -4.9090   31.0380 C   0  0  0  0  0  0  0  0  0  0  0  0
    0.0190   -5.7430   30.3810 C   0  0  0  0  0  0  0  0  0  0  0  0
   -1.0230   -5.2780   35.5590 N   0  0  0  0  0  0  0  0  0  0  0  0
    0.7350   -6.4710   34.4190 N   0  0  0  0  0  0  0  0  0  0  0  0
   -1.5750   -7.6570   30.7370 N   0  0  0  0  0  0  0  0  0  0  0  0
   -1.9410   -8.3620   31.8840 N   0  0  0  0  0  0  0  0  0  0  0  0
   -0.4440   -6.8590   32.4600 N   0  0  0  0  0  0  0  0  0  0  0  0
    0.3190   -6.5670   36.7340 N   0  0  0  0  0  0  0  0  0  0  0  0
  3  2  2  0
  7  6  2  0
  7  2  1  0
  8  3  1  0
  9  8  2  0
  9  6  1  0
 10  9  1  0
 10  1  2  0
 13 12  2  0
 14 13  1  0
 15  4  1  0
 15 14  2  0
 16 11  2  0
 16  1  1  0
 17 12  1  0
 17 11  1  0
 18  4  2  0
 19 18  1  0
 19  5  2  0
 20  4  1  0
 20 12  1  0
 20  5  1  0
 21 11  1  0
 21 10  1  0
M  END
>  <id>  (1) 
150

>  <inchikey>  (1) 
DNEHZXPFMONSEW-UHFFFAOYSA-N

>  <alias>  (1) 
B0742a

>  <smiles>  (1) 
c1ccc(-c2nnc(Nc3cccc4nncn34)[nH]2)cc1

>  <path>  (1) 
/opt/xchem-fragalysis-2/maxwin/BulkDock/TARGETS/D68EV3C/aligned_files/B0742a/B0742a.pdb

>  <distance_score>  (1) 
None

>  <energy_score>  (1) 
None

>  <compound>  (1) 
DNEHZXPFMONSEW-UHFFFAOYSA-N

>  <compound_id>  (1) 
121

>  <target>  (1) 
D68EV3C

$$$$
B1361a
     RDKit          3D

 20 21  0  0  0  0  0  0  0  0999 V2000
    0.0880   -2.8870   31.1210 N   0  0  0  0  0  0  0  0  0  0  0  0
    0.2710   -3.7500   29.9490 C   0  0  0  0  0  0  0  0  0  0  0  0
   -1.0960   -1.2220   32.4690 O   0  0  0  0  0  0  0  0  0  0  0  0
    1.0590   -4.9890   30.3170 C   0  0  0  0  0  0  0  0  0  0  0  0
   -1.5290    1.0890   28.8830 C   0  0  0  0  0  0  0  0  0  0  0  0
   -1.3130    0.2980   29.9990 C   0  0  0  0  0  0  0  0  0  0  0  0
    0.3100   -5.7580   31.3620 C   0  0  0  0  0  0  0  0  0  0  0  0
   -0.0910   -6.2040   33.5660 C   0  0  0  0  0  0  0  0  0  0  0  0
   -0.9580   -7.2300   33.2420 C   0  0  0  0  0  0  0  0  0  0  0  0
   -1.1300   -7.4580   31.8750 C   0  0  0  0  0  0  0  0  0  0  0  0
   -1.5270   -1.0700   29.9190 C   0  0  0  0  0  0  0  0  0  0  0  0
   -1.9390   -1.6510   28.7310 C   0  0  0  0  0  0  0  0  0  0  0  0
   -2.1590   -0.8560   27.6210 C   0  0  0  0  0  0  0  0  0  0  0  0
   -1.9690    0.5160   27.6980 C   0  0  0  0  0  0  0  0  0  0  0  0
    0.5560   -5.4580   32.6610 N   0  0  0  0  0  0  0  0  0  0  0  0
   -0.5150   -6.7200   30.9310 N   0  0  0  0  0  0  0  0  0  0  0  0
   -2.3530   -3.0450   31.3800 O   0  0  0  0  0  0  0  0  0  0  0  0
   -1.8740   -8.4400   31.4740 O   0  0  0  0  0  0  0  0  0  0  0  0
   -2.2820    1.2950   26.6180 O   0  0  0  0  0  0  0  0  0  0  0  0
   -1.2920   -2.0830   31.3410 S   0  0  1  0  0  0  0  0  0  0  0  0
  2  1  1  0
  4  2  1  0
  6  5  2  0
  7  4  1  0
  9  8  2  0
 10  9  1  0
 11  6  1  0
 12 11  2  0
 13 12  1  0
 14 13  2  0
 14  5  1  0
 15  7  2  0
 15  8  1  0
 16 10  2  0
 16  7  1  0
 18 10  1  0
 19 14  1  0
 20 17  2  0
 20 11  1  0
 20  3  2  0
 20  1  1  6
M  END
>  <id>  (2) 
188

>  <inchikey>  (2) 
CINSIERXHZAWIH-UHFFFAOYSA-N

>  <alias>  (2) 
B1361a

>  <smiles>  (2) 
O=S(=O)(NCCc1nccc(O)n1)c1ccc(O)cc1

>  <path>  (2) 
/opt/xchem-fragalysis-2/maxwin/BulkDock/TARGETS/D68EV3C/aligned_files/B1361a/B1361a_hippo.pdb

>  <distance_score>  (2) 
None

>  <energy_score>  (2) 
None

>  <compound>  (2) 
CINSIERXHZAWIH-UHFFFAOYSA-N

>  <compound_id>  (2) 
147

>  <target>  (2) 
D68EV3C

$$$$
