B0742a
     RDKit          3D

 21 24  0  0  0  0  0  0  0  0999 V2000
   -1.4300   -5.2280   36.8940 N   0  0  0  0  0  0  0  0  0  0  0  0
   -1.0630   -7.1140   41.6710 C   0  0  0  0  0  0  0  0  0  0  0  0
   -0.1930   -7.8100   40.8580 C   0  0  0  0  0  0  0  0  0  0  0  0
   -0.6760   -6.7470   31.0970 C   0  0  0  0  0  0  0  0  0  0  0  0
   -1.2640   -7.8670   32.8800 C   0  0  0  0  0  0  0  0  0  0  0  0
   -1.5930   -5.6560   39.8390 C   0  0  0  0  0  0  0  0  0  0  0  0
   -1.7590   -6.0370   41.1640 C   0  0  0  0  0  0  0  0  0  0  0  0
   -0.0240   -7.4410   39.5330 C   0  0  0  0  0  0  0  0  0  0  0  0
   -0.7310   -6.3620   39.0060 C   0  0  0  0  0  0  0  0  0  0  0  0
   -0.6160   -6.0220   37.5750 C   0  0  0  0  0  0  0  0  0  0  0  0
    0.0160   -6.0940   35.5100 C   0  0  0  0  0  0  0  0  0  0  0  0
    0.4600   -6.0450   33.1220 C   0  0  0  0  0  0  0  0  0  0  0  0
    1.1110   -5.0390   32.4230 C   0  0  0  0  0  0  0  0  0  0  0  0
    0.8810   -4.9090   31.0380 C   0  0  0  0  0  0  0  0  0  0  0  0
    0.0190   -5.7430   30.3810 C   0  0  0  0  0  0  0  0  0  0  0  0
   -1.0230   -5.2780   35.5590 N   0  0  0  0  0  0  0  0  0  0  0  0
    0.7350   -6.4710   34.4190 N   0  0  0  0  0  0  0  0  0  0  0  0
   -1.5750   -7.6570   30.7370 N   0  0  0  0  0  0  0  0  0  0  0  0
   -1.9410   -8.3620   31.8840 N   0  0  0  0  0  0  0  0  0  0  0  0
   -0.4440   -6.8590   32.4600 N   0  0  0  0  0  0  0  0  0  0  0  0
    0.3190   -6.5670   36.7340 N   0  0  0  0  0  0  0  0  0  0  0  0
  3  2  2  0
  7  6  2  0
  7  2  1  0
  8  3  1  0
  9  8  2  0
  9  6  1  0
 10  9  1  0
 10  1  2  0
 13 12  2  0
 14 13  1  0
 15  4  1  0
 15 14  2  0
 16 11  2  0
 16  1  1  0
 17 12  1  0
 17 11  1  0
 18  4  2  0
 19 18  1  0
 19  5  2  0
 20  4  1  0
 20 12  1  0
 20  5  1  0
 21 11  1  0
 21 10  1  0
M  END
>  <id>  (1) 
150

>  <inchikey>  (1) 
DNEHZXPFMONSEW-UHFFFAOYSA-N

>  <alias>  (1) 
B0742a

>  <smiles>  (1) 
c1ccc(-c2nnc(Nc3cccc4nncn34)[nH]2)cc1

>  <path>  (1) 
/opt/xchem-fragalysis-2/maxwin/BulkDock/TARGETS/D68EV3C/aligned_files/B0742a/B0742a.pdb

>  <distance_score>  (1) 
None

>  <energy_score>  (1) 
None

>  <compound>  (1) 
DNEHZXPFMONSEW-UHFFFAOYSA-N

>  <compound_id>  (1) 
121

>  <target>  (1) 
D68EV3C

$$$$
B1307a
     RDKit          3D

 18 19  0  0  0  0  0  0  0  0999 V2000
    0.7210   -6.0690   32.8940 N   0  0  0  0  0  0  0  0  0  0  0  0
   -1.2540   -7.8390   31.9980 C   0  0  0  0  0  0  0  0  0  0  0  0
   -2.0970   -8.5830   31.5020 O   0  0  0  0  0  0  0  0  0  0  0  0
   -1.0690   -7.5950   33.4070 C   0  0  0  0  0  0  0  0  0  0  0  0
   -0.0950   -6.7250   33.7650 C   0  0  0  0  0  0  0  0  0  0  0  0
    0.5610   -6.2810   31.6280 C   0  0  0  0  0  0  0  0  0  0  0  0
    1.3440   -5.5570   30.5860 C   0  0  0  0  0  0  0  0  0  0  0  0
    0.7260   -4.2070   30.2430 C   0  0  0  0  0  0  0  0  0  0  0  0
   -1.2030   -1.4920   30.3000 C   0  0  0  0  0  0  0  0  0  0  0  0
   -1.4390   -1.8200   28.9940 C   0  0  0  0  0  0  0  0  0  0  0  0
   -1.4180   -0.6800   28.1980 C   0  0  0  0  0  0  0  0  0  0  0  0
    0.4430   -3.3500   31.4090 N   0  0  0  0  0  0  0  0  0  0  0  0
   -1.1960    0.4780   28.8480 N   0  0  0  0  0  0  0  0  0  0  0  0
   -0.3920   -7.1460   31.1660 N   0  0  0  0  0  0  0  0  0  0  0  0
   -0.9490   -1.8990   32.8200 O   0  0  0  0  0  0  0  0  0  0  0  0
   -1.9800   -3.6830   31.4550 O   0  0  0  0  0  0  0  0  0  0  0  0
   -1.0040   -2.6490   31.6030 S   0  0  1  0  0  0  0  0  0  0  0  0
   -1.0060    0.1650   30.4570 S   0  0  0  0  0  0  0  0  0  0  0  0
  3  2  2  0
  4  2  1  0
  5  4  2  0
  5  1  1  0
  6  1  2  0
  7  6  1  0
  8  7  1  0
 10  9  2  0
 11 10  1  0
 12  8  1  0
 13 11  2  0
 14  6  1  0
 14  2  1  0
 17 16  2  0
 17 12  1  6
 17  9  1  0
 17 15  2  0
 18 13  1  0
 18  9  1  0
M  END
>  <id>  (2) 
186

>  <inchikey>  (2) 
CZVHMIQYFCZUOC-UHFFFAOYSA-N

>  <alias>  (2) 
B1307a

>  <smiles>  (2) 
O=c1ccnc(CCNS(=O)(=O)c2ccns2)[nH]1

>  <path>  (2) 
/opt/xchem-fragalysis-2/maxwin/BulkDock/TARGETS/D68EV3C/aligned_files/B1307a/B1307a.pdb

>  <distance_score>  (2) 
None

>  <energy_score>  (2) 
None

>  <compound>  (2) 
CZVHMIQYFCZUOC-UHFFFAOYSA-N

>  <compound_id>  (2) 
146

>  <target>  (2) 
D68EV3C

$$$$
