7gp0_B_201_1_7gon+B+201+1__LIG
     RDKit          3D

 14 14  0  0  0  0  0  0  0  0999 V2000
   16.1180   -4.4190   17.4710 N   0  0  0  0  0  0  0  0  0  0  0  0
   15.7130    0.7780   17.9410 C   0  0  0  0  0  0  0  0  0  0  0  0
   15.3880    0.2910   16.6860 C   0  0  0  0  0  0  0  0  0  0  0  0
   15.0870   -1.0550   16.5200 C   0  0  0  0  0  0  0  0  0  0  0  0
   15.2040   -1.0450   14.1620 C   0  0  0  0  0  0  0  0  0  0  0  0
   14.7200   -3.6300   17.5210 S   0  0  0  0  0  0  0  0  0  0  0  0
   14.0610   -3.8550   16.2700 O   0  0  0  0  0  0  0  0  0  0  0  0
   14.0390   -4.0220   18.7230 O   0  0  0  0  0  0  0  0  0  0  0  0
   15.0950   -1.9010   17.6400 C   0  0  0  0  0  0  0  0  0  0  0  0
   15.4210   -1.4020   18.8940 C   0  0  0  0  0  0  0  0  0  0  0  0
   15.7340   -0.0600   19.0340 C   0  0  0  0  0  0  0  0  0  0  0  0
   14.8340   -1.6500   15.3080 O   0  0  0  0  0  0  0  0  0  0  0  0
   14.3230   -0.0300   14.0670 F   0  0  0  0  0  0  0  0  0  0  0  0
   16.4610   -0.5760   14.3480 F   0  0  0  0  0  0  0  0  0  0  0  0
  7  6  2  0
 10 11  1  0
 10  9  2  0
  8  6  2  0
  6  9  1  0
  6  1  1  0
 11  2  2  0
  9  4  1  0
  2  3  1  0
  4  3  2  0
  4 12  1  0
  5 13  1  0
  5 12  1  0
  5 14  1  0
M  END
$$$$
