D68EV3CPROB-x1219_A_309_1_7gpw+B+202+1__LIG
     RDKit          3D

 20 23  0  0  0  0  0  0  0  0999 V2000
   -4.1950   -2.9730    4.3980 F   0  0  0  0  0  0  0  0  0  0  0  0
   -5.2980   -2.2000    4.2040 C   0  0  0  0  0  0  0  0  0  0  0  0
   -5.1130   -0.8520    3.9860 C   0  0  0  0  0  0  0  0  0  0  0  0
   -6.2540   -0.0850    3.7940 C   0  0  0  0  0  0  0  0  0  0  0  0
   -7.5260   -0.6590    3.8180 C   0  0  0  0  0  0  0  0  0  0  0  0
   -7.6630   -2.0290    4.0360 C   0  0  0  0  0  0  0  0  0  0  0  0
   -6.5340   -2.8090    4.2360 C   0  0  0  0  0  0  0  0  0  0  0  0
   -6.4630    1.2710    3.5680 N   0  0  0  0  0  0  0  0  0  0  0  0
   -7.8050    1.4400    3.4730 C   0  0  0  0  0  0  0  0  0  0  0  0
   -8.4800    0.3330    3.6130 N   0  0  0  0  0  0  0  0  0  0  0  0
   -8.5190    3.0250    3.1800 S   0  0  0  0  0  0  0  0  0  0  0  0
  -10.0980    2.5860    2.5860 C   0  0  0  0  0  0  0  0  0  0  0  0
  -10.2370    1.8420    1.4070 N   0  0  0  0  0  0  0  0  0  0  0  0
   -9.3460    1.3110    0.5180 C   0  0  0  0  0  0  0  0  0  0  0  0
   -9.9660    0.6930   -0.4490 N   0  0  0  0  0  0  0  0  0  0  0  0
  -11.3340    0.8040   -0.2140 N   0  0  0  0  0  0  0  0  0  0  0  0
  -11.4900    1.4980    0.9080 C   0  0  0  0  0  0  0  0  0  0  0  0
  -12.6370    1.9200    1.6220 C   0  0  0  0  0  0  0  0  0  0  0  0
  -12.4910    2.6400    2.7700 C   0  0  0  0  0  0  0  0  0  0  0  0
  -11.2060    2.9770    3.2620 C   0  0  0  0  0  0  0  0  0  0  0  0
  2  1  1  0
  2  7  2  0
  7  6  1  0
  6  5  2  0
  5 10  1  0
 10  9  2  0
 11  9  1  0
 12 11  1  0
 12 20  2  0
 20 19  1  0
 19 18  2  0
 18 17  1  0
 17 16  2  0
 16 15  1  0
 15 14  2  0
 14 13  1  0
 13 12  1  0
 17 13  1  0
  9  8  1  0
  8  4  1  0
  5  4  1  0
  4  3  2  0
  3  2  1  0
M  END
$$$$
