7gq4_A_201_1_7gp9+A+201+1__LIG
     RDKit          3D

  6  6  0  0  0  0  0  0  0  0999 V2000
   -0.9690   -7.4160   34.7270 C   0  0  0  0  0  0  0  0  0  0  0  0
   -1.0210   -7.4860   33.2430 C   0  0  0  0  0  0  0  0  0  0  0  0
   -0.2370   -6.8170   32.4350 N   0  0  0  0  0  0  0  0  0  0  0  0
   -0.5580   -7.2160   31.1740 N   0  0  0  0  0  0  0  0  0  0  0  0
   -1.5080   -8.0900   31.1960 N   0  0  0  0  0  0  0  0  0  0  0  0
   -1.8210   -8.2680   32.4960 N   0  0  0  0  0  0  0  0  0  0  0  0
  2  1  1  0
  3  2  2  0
  4  3  1  0
  5  4  2  0
  6  5  1  0
  2  6  1  0
M  END
$$$$
