D68EV3CPROB-x0495_A_401_1_D68EV3CPROB-x1120+A+308+1__LIG
     RDKit          3D

 18 19  0  0  0  0  0  0  0  0999 V2000
  -13.1540  -37.6410   31.9290 Br  0  0  0  0  0  0  0  0  0  0  0  0
  -13.8160  -36.3010   33.0530 C   0  0  0  0  0  0  0  0  0  0  0  0
  -13.8340  -36.4320   34.3730 N   0  0  0  0  0  0  0  0  0  0  0  0
  -14.3840  -35.2370   34.8660 O   0  0  0  0  0  0  0  0  0  0  0  0
  -14.6710  -34.4390   33.8280 C   0  0  0  0  0  0  0  0  0  0  0  0
  -14.3530  -35.0130   32.6520 C   0  0  0  0  0  0  0  0  0  0  0  0
  -14.4720  -34.4790   31.2480 C   0  0  0  0  0  0  0  0  0  0  0  0
  -14.4940  -33.0160   31.1560 N   0  0  0  0  0  0  0  0  0  0  0  0
  -13.3090  -32.3760   31.7510 C   0  0  0  0  0  0  0  0  0  0  0  0
  -12.6210  -31.6050   30.6370 C   0  0  0  0  0  0  0  0  0  0  0  0
  -14.5480  -32.4960   29.7810 C   0  0  0  0  0  0  0  0  0  0  0  0
  -13.0730  -32.3390   29.3750 C   0  0  1  0  0  0  0  0  0  0  0  0
  -12.6870  -31.4900   27.8460 S   0  0  0  0  0  0  0  0  0  0  0  0
  -11.6450  -32.2330   27.2010 O   0  0  0  0  0  0  0  0  0  0  0  0
  -12.4690  -30.1090   28.1570 O   0  0  0  0  0  0  0  0  0  0  0  0
  -14.0290  -31.5680   26.8620 N   0  0  0  0  0  0  0  0  0  0  0  0
  -14.6990  -30.3410   26.4160 C   0  0  0  0  0  0  0  0  0  0  0  0
  -14.2070  -32.7150   25.9660 C   0  0  0  0  0  0  0  0  0  0  0  0
 18 16  1  0
 17 16  1  0
 16 13  1  0
 14 13  2  0
 15 13  2  0
 12 13  1  6
 12 10  1  0
 10  9  1  0
  9  8  1  0
  8  7  1  0
  7  6  1  0
  6  5  2  0
  5  4  1  0
  4  3  1  0
  3  2  2  0
  6  2  1  0
  2  1  1  0
 11  8  1  0
 12 11  1  0
M  END
$$$$
