D68EV3CPROB-x1020_A_308_1_7gp9+A+201+1__LIG
     RDKit          3D

 18 20  0  0  0  0  0  0  0  0999 V2000
    2.0780   -6.2400   36.4020 O   0  0  0  0  0  0  0  0  0  0  0  0
    0.6680   -6.3230   36.5450 S   0  0  0  0  0  0  0  0  0  0  0  0
    0.0410   -7.3940   37.2400 O   0  0  0  0  0  0  0  0  0  0  0  0
    0.0060   -6.2800   35.0920 N   0  0  0  0  0  0  0  0  0  0  0  0
   -1.1330   -7.1170   34.6590 C   0  0  0  0  0  0  0  0  0  0  0  0
   -1.1180   -7.3780   33.1870 C   0  0  0  0  0  0  0  0  0  0  0  0
   -1.8880   -8.1640   32.4110 N   0  0  0  0  0  0  0  0  0  0  0  0
   -1.5200   -8.0470   31.1220 N   0  0  0  0  0  0  0  0  0  0  0  0
   -0.5190   -7.1920   31.0800 N   0  0  0  0  0  0  0  0  0  0  0  0
   -0.2480   -6.7770   32.3460 C   0  0  0  0  0  0  0  0  0  0  0  0
    0.8470   -5.8700   32.8160 C   0  0  0  0  0  0  0  0  0  0  0  0
    0.4380   -5.2370   34.1400 C   0  0  0  0  0  0  0  0  0  0  0  0
    0.1430   -4.9380   37.1470 N   0  0  0  0  0  0  0  0  0  0  0  0
   -1.2380   -4.9530   37.6610 C   0  0  0  0  0  0  0  0  0  0  0  0
   -1.7630   -3.5340   37.7390 C   0  0  0  0  0  0  0  0  0  0  0  0
   -0.7520   -2.5970   38.2570 N   0  0  0  0  0  0  0  0  0  0  0  0
    0.3140   -3.3090   38.9720 C   0  0  0  0  0  0  0  0  0  0  0  0
    1.0820   -4.2270   38.0380 C   0  0  0  0  0  0  0  0  0  0  0  0
  3  2  2  0
  2  1  2  0
 13  2  1  0
 13 18  1  0
 18 17  1  0
 17 16  1  0
 16 15  1  0
 15 14  1  0
 14 13  1  0
  4  2  1  0
  4 12  1  0
 12 11  1  0
 11 10  1  0
 10  9  1  0
  9  8  2  0
  8  7  1  0
  7  6  1  0
 10  6  2  0
  6  5  1  0
  5  4  1  0
M  END
$$$$
