ver_1.2
     RDKit          3D

 22 24  0  0  0  0  0  0  0  0999 V2000
    1.4529    0.2308   -2.5022 O   0  0  0  0  0  0  0  0  0  0  0  0
    1.6268   -0.3897   -1.4192 C   0  0  0  0  0  0  0  0  0  0  0  0
    0.6402   -1.3853   -0.9045 C   0  0  0  0  0  0  0  0  0  0  0  0
   -0.5241   -1.4953   -1.8674 C   0  0  0  0  0  0  0  0  0  0  0  0
   -1.1430   -0.1192   -1.9511 C   0  0  0  0  0  0  0  0  0  0  0  0
   -1.5884    0.2692   -0.6270 N   0  0  0  0  0  0  0  0  0  0  0  0
   -0.9279    0.9262    0.3432 C   0  0  0  0  0  0  0  0  0  0  0  0
   -1.7614    1.0673    1.4278 C   0  0  0  0  0  0  0  0  0  0  0  0
   -2.9743    0.4766    1.1116 C   0  0  0  0  0  0  0  0  0  0  0  0
   -4.1705    0.3072    1.7831 C   0  0  0  0  0  0  0  0  0  0  0  0
   -5.2436   -0.3531    1.1758 C   0  0  0  0  0  0  0  0  0  0  0  0
   -6.7559   -0.5745    2.0077 Cl  0  0  0  0  0  0  0  0  0  0  0  0
   -5.1200   -0.8477   -0.1121 C   0  0  0  0  0  0  0  0  0  0  0  0
   -3.9090   -0.6559   -0.7436 C   0  0  0  0  0  0  0  0  0  0  0  0
   -2.8311   -0.0097   -0.1742 C   0  0  0  0  0  0  0  0  0  0  0  0
    2.8021   -0.1336   -0.6612 N   0  0  0  0  0  0  0  0  0  0  0  0
    3.7759    0.8402   -1.1561 C   0  0  0  0  0  0  0  0  0  0  0  0
    4.9111    0.9118   -0.1650 C   0  0  0  0  0  0  0  0  0  0  0  0
    5.5350   -0.4677   -0.0591 C   0  0  0  0  0  0  0  0  0  0  0  0
    6.2150   -0.4484    1.2979 C   0  0  0  0  0  0  0  0  0  0  0  0
    5.5745    0.7331    1.9890 C   0  0  0  0  0  0  0  0  0  0  0  0
    4.4157    1.1097    1.2066 N   0  0  0  0  0  0  0  0  0  0  0  0
  1  2  2  0
  2  3  1  0
  3  4  1  0
  4  5  1  0
  5  6  1  0
  6  7  1  0
  7  8  2  0
  8  9  1  0
  9 10  2  0
 10 11  1  0
 11 12  1  0
 11 13  2  0
 13 14  1  0
 14 15  2  0
  2 16  1  0
 16 17  1  0
 17 18  1  0
 18 19  1  0
 19 20  1  0
 20 21  1  0
 21 22  1  0
 15  6  1  0
 22 18  1  0
 15  9  1  0
M  END
>  <ref_url>  (1) 
https://github.com/mwinokan/BulkDock

>  <submitter_name>  (1) 
Max Winokan

>  <submitter_email>  (1) 
max.winokan@diamond.ac.uk

>  <submitter_institution>  (1) 
DLS

>  <generation_date>  (1) 
2025-03-04

>  <method>  (1) 
iter1_knit_pure

>  <SLURM_JOB_ID>  (1) 
SLURM_JOB_ID

>  <SLURM_JOB_NAME>  (1) 
SLURM_JOB_NAME

>  <csv_name>  (1) 
csv_name

>  <scratch_subdir>  (1) 
scratch_subdir

>  <fragmenstein_runtime>  (1) 
fragmenstein_runtime

>  <fragmenstein_outcome>  (1) 
fragmenstein_outcome

>  <fragmenstein_mode>  (1) 
fragmenstein_mode

>  <fragmenstein_error>  (1) 
fragmenstein_error

>  <exports>  (1) 
exports

>  <score_inspiration>  (1) 
score_inspiration

>  <HIPPO Pose ID>  (1) 
HIPPO Pose ID

>  <HIPPO Compound ID>  (1) 
HIPPO Compound ID

>  <smiles>  (1) 
smiles

>  <ref_pdb>  (1) 
protein reference

>  <ref_mols>  (1) 
fragment inspirations

>  <original ID>  (1) 
original ID

>  <compound inchikey>  (1) 
compound inchikey

$$$$
694
     RDKit          3D

 22 24  0  0  0  0  0  0  0  0999 V2000
    4.1652   -0.0089   29.1368 O   0  0  0  0  0  0  0  0  0  0  0  0
    4.2716    0.1597   27.9875 C   0  0  0  0  0  0  0  0  0  0  0  0
    4.2684   -0.9587   26.9496 C   0  0  0  0  0  0  0  0  0  0  0  0
    4.0680   -2.3684   27.5137 C   0  0  0  0  0  0  0  0  0  0  0  0
    2.6631   -2.5982   28.0923 C   0  0  0  0  0  0  0  0  0  0  0  0
    2.2676   -3.9948   28.2904 N   0  0  0  0  0  0  0  0  0  0  0  0
    2.6482   -5.0661   27.5212 C   0  0  0  0  0  0  0  0  0  0  0  0
    2.1325   -6.2073   28.0879 C   0  0  0  0  0  0  0  0  0  0  0  0
    1.3152   -5.8250   29.1795 C   0  0  0  0  0  0  0  0  0  0  0  0
    0.5171   -6.5341   30.0992 C   0  0  0  0  0  0  0  0  0  0  0  0
   -0.0654   -5.8433   31.1628 C   0  0  0  0  0  0  0  0  0  0  0  0
   -0.8805   -6.7357   32.3848 Cl  0  0  0  0  0  0  0  0  0  0  0  0
    0.0397   -4.4629   31.2677 C   0  0  0  0  0  0  0  0  0  0  0  0
    0.7656   -3.7328   30.3222 C   0  0  0  0  0  0  0  0  0  0  0  0
    1.4234   -4.4364   29.2998 C   0  0  0  0  0  0  0  0  0  0  0  0
    4.4084    1.4740   27.1722 N   0  0  0  0  0  0  0  0  0  0  0  0
    4.5380    2.8483   27.6168 C   0  0  0  0  0  0  0  0  0  0  0  0
    3.8070    3.8087   26.6603 C   0  0  2  0  0  0  0  0  0  0  0  0
    3.8190    5.2711   27.1060 C   0  0  0  0  0  0  0  0  0  0  0  0
    2.3976    5.7460   26.8635 C   0  0  0  0  0  0  0  0  0  0  0  0
    1.5875    4.4951   27.1215 C   0  0  0  0  0  0  0  0  0  0  0  0
    2.3858    3.4473   26.4895 N   0  0  0  0  0  0  0  0  0  0  0  0
  1  2  2  0
  2  3  1  0
  3  4  1  0
  4  5  1  0
  5  6  1  0
  6  7  1  0
  7  8  2  0
  8  9  1  0
  9 10  2  0
 10 11  1  0
 11 12  1  0
 11 13  2  0
 13 14  1  0
 14 15  2  0
  2 16  1  0
 16 17  1  0
 18 17  1  1
 18 19  1  0
 19 20  1  0
 20 21  1  0
 21 22  1  0
 15  6  1  0
 22 18  1  0
 15  9  1  0
M  END
>  <HIPPO Pose ID>  (1) 
694

>  <scratch_subdir>  (1) 
/opt/xchem-fragalysis-2/maxwin/BulkDock/SCRATCH/350563/C1994-P40

>  <ref_mols>  (1) 
7gok-a,7gpf-a

>  <original SMILES>  (1) 
O=C(CCCn1ccc2cc(Cl)ccc21)NC[C@@H]1CCCN1

>  <HIPPO Compound ID>  (1) 
1994

>  <original ID>  (1) 
GAXDYFIBCHSKPE-HNNXBMFYSA-N

>  <alias>  (1) 
None

>  <fragmenstein_runtime>  (1) 
1.85369

>  <score_inspiration>  (1) 
0.456663

>  <name>  (1) 
GAXDYFIBCHSKPE-HNNXBMFYSA-N

>  <fragmenstein_mode>  (1) 
expansion

>  <fragmenstein_error>  (1) 
None

>  <fragmenstein_outcome>  (1) 
acceptable

>  <inchikey>  (1) 
GAXDYFIBCHSKPE-HNNXBMFYSA-N

>  <tags>  (1) 
Fragmenstein placed

>  <SLURM_JOB_ID>  (1) 
350563

>  <energy_score>  (1) 
-0.191854

>  <ref_pdb>  (1) 
7gok-a

>  <distance_score>  (1) 
0.931688

>  <csv_name>  (1) 
D68EV3C_iter1_knitwork_pure_split1000_batch002.csv

$$$$
708
     RDKit          3D

 11 12  0  0  0  0  0  0  0  0999 V2000
   -1.2281   -2.1287   29.1256 C   0  0  0  0  0  0  0  0  0  0  0  0
   -1.5189   -1.0930   28.2713 C   0  0  0  0  0  0  0  0  0  0  0  0
   -1.2052    0.1838   28.8558 C   0  0  0  0  0  0  0  0  0  0  0  0
   -1.3842    1.3715   28.1801 N   0  0  0  0  0  0  0  0  0  0  0  0
   -2.0119    1.3333   26.8539 C   0  0  0  0  0  0  0  0  0  0  0  0
   -2.4538    2.7056   26.3726 C   0  0  0  0  0  0  0  0  0  0  0  0
   -1.3014    3.6924   26.4181 C   0  0  0  0  0  0  0  0  0  0  0  0
   -0.7468    3.7483   27.8327 C   0  0  0  0  0  0  0  0  0  0  0  0
   -0.3106    2.3709   28.3291 C   0  0  0  0  0  0  0  0  0  0  0  0
   -0.7359    0.1024   30.1043 N   0  0  0  0  0  0  0  0  0  0  0  0
   -0.6520   -1.4747   30.5757 S   0  0  0  0  0  0  0  0  0  0  0  0
  1  2  2  0
  2  3  1  0
  3  4  1  0
  4  5  1  0
  5  6  1  0
  6  7  1  0
  7  8  1  0
  8  9  1  0
  3 10  2  0
 10 11  1  0
 11  1  1  0
  9  4  1  0
M  END
>  <HIPPO Pose ID>  (2) 
708

>  <scratch_subdir>  (2) 
/opt/xchem-fragalysis-2/maxwin/BulkDock/SCRATCH/350562/C4445-P44

>  <ref_mols>  (2) 
7gp2-a,B1307a

>  <original SMILES>  (2) 
c1cc(N2CCCCC2)ns1

>  <HIPPO Compound ID>  (2) 
4445

>  <original ID>  (2) 
CNBZAADYSVGLQG-UHFFFAOYSA-N

>  <alias>  (2) 
None

>  <fragmenstein_runtime>  (2) 
1.294445

>  <score_inspiration>  (2) 
0.796407

>  <name>  (2) 
CNBZAADYSVGLQG-UHFFFAOYSA-N

>  <fragmenstein_mode>  (2) 
expansion

>  <fragmenstein_error>  (2) 
None

>  <fragmenstein_outcome>  (2) 
acceptable

>  <inchikey>  (2) 
CNBZAADYSVGLQG-UHFFFAOYSA-N

>  <tags>  (2) 
Fragmenstein placed

>  <SLURM_JOB_ID>  (2) 
350562

>  <energy_score>  (2) 
-27.022701

>  <ref_pdb>  (2) 
7gp2-a

>  <distance_score>  (2) 
0.998505

>  <csv_name>  (2) 
D68EV3C_iter1_knitwork_pure_split1000_batch001.csv

$$$$
841
     RDKit          3D

 21 23  0  0  0  0  0  0  0  0999 V2000
    2.7528    1.8668   28.4557 C   0  0  0  0  0  0  0  0  0  0  0  0
    1.4584    2.2411   28.0087 O   0  0  0  0  0  0  0  0  0  0  0  0
    0.5031    1.2666   27.9810 C   0  0  0  0  0  0  0  0  0  0  0  0
    0.6502   -0.0457   28.4512 C   0  0  0  0  0  0  0  0  0  0  0  0
   -0.4098   -0.9798   28.3557 C   0  0  0  0  0  0  0  0  0  0  0  0
   -0.2293   -2.4054   28.8035 C   0  0  0  0  0  0  0  0  0  0  0  0
   -1.0137   -2.7821   29.9907 N   0  0  0  0  0  0  0  0  0  0  0  0
   -0.3823   -2.3785   31.2578 C   0  0  2  0  0  0  0  0  0  0  0  0
   -0.6341   -3.4793   32.2972 C   0  0  0  0  0  0  0  0  0  0  0  0
   -0.8059   -0.9765   31.7620 C   0  0  0  0  0  0  0  0  0  0  0  0
   -2.1445   -0.8947   32.3972 C   0  0  0  0  0  0  0  0  0  0  0  0
   -3.3173   -1.5963   32.2868 C   0  0  0  0  0  0  0  0  0  0  0  0
   -4.1522   -1.0387   33.2644 C   0  0  0  0  0  0  0  0  0  0  0  0
   -3.5704   -0.0206   33.8988 N   0  0  0  0  0  0  0  0  0  0  0  0
   -2.2955    0.0634   33.3571 O   0  0  0  0  0  0  0  0  0  0  0  0
   -1.6282   -0.5869   27.7836 C   0  0  0  0  0  0  0  0  0  0  0  0
   -1.7492    0.7066   27.3275 C   0  0  0  0  0  0  0  0  0  0  0  0
   -0.7194    1.6107   27.4277 C   0  0  0  0  0  0  0  0  0  0  0  0
   -1.0556    2.8214   26.8954 O   0  0  0  0  0  0  0  0  0  0  0  0
   -2.4353    2.5973   26.5406 C   0  0  0  0  0  0  0  0  0  0  0  0
   -2.8448    1.2298   26.7160 O   0  0  0  0  0  0  0  0  0  0  0  0
  1  2  1  0
  2  3  1  0
  3  4  2  0
  4  5  1  0
  5  6  1  0
  6  7  1  0
  7  8  1  0
  8  9  1  1
  8 10  1  0
 10 11  1  0
 11 12  2  0
 12 13  1  0
 13 14  2  0
 14 15  1  0
  5 16  2  0
 16 17  1  0
 17 18  2  0
 18 19  1  0
 19 20  1  0
 20 21  1  0
 18  3  1  0
 15 11  1  0
 21 17  1  0
M  END
>  <HIPPO Pose ID>  (3) 
841

>  <scratch_subdir>  (3) 
/opt/xchem-fragalysis-2/maxwin/BulkDock/SCRATCH/350563/C2022-P13

>  <ref_mols>  (3) 
7gp9-a,7goy-a

>  <original SMILES>  (3) 
COc1cc(CN[C@H](C)Cc2ccno2)cc2c1OCO2

>  <HIPPO Compound ID>  (3) 
2022

>  <original ID>  (3) 
ZBTYMXBQBXMSMR-SNVBAGLBSA-N

>  <alias>  (3) 
None

>  <fragmenstein_runtime>  (3) 
1.54221

>  <score_inspiration>  (3) 
0.68696

>  <name>  (3) 
ZBTYMXBQBXMSMR-SNVBAGLBSA-N

>  <fragmenstein_mode>  (3) 
expansion

>  <fragmenstein_error>  (3) 
None

>  <fragmenstein_outcome>  (3) 
acceptable

>  <inchikey>  (3) 
ZBTYMXBQBXMSMR-SNVBAGLBSA-N

>  <tags>  (3) 
Fragmenstein placed

>  <SLURM_JOB_ID>  (3) 
350563

>  <energy_score>  (3) 
-39.765709

>  <ref_pdb>  (3) 
7gp9-a

>  <distance_score>  (3) 
0.813345

>  <csv_name>  (3) 
D68EV3C_iter1_knitwork_pure_split1000_batch002.csv

$$$$
842
     RDKit          3D

 21 23  0  0  0  0  0  0  0  0999 V2000
    2.6054    1.9928   28.7216 C   0  0  0  0  0  0  0  0  0  0  0  0
    1.4377    2.2427   27.9533 O   0  0  0  0  0  0  0  0  0  0  0  0
    0.4801    1.2695   27.9512 C   0  0  0  0  0  0  0  0  0  0  0  0
    0.6397   -0.0394   28.4256 C   0  0  0  0  0  0  0  0  0  0  0  0
   -0.4182   -0.9781   28.3511 C   0  0  0  0  0  0  0  0  0  0  0  0
   -0.2204   -2.4006   28.7999 C   0  0  0  0  0  0  0  0  0  0  0  0
   -0.9890   -2.7840   29.9949 N   0  0  0  0  0  0  0  0  0  0  0  0
   -0.3653   -2.3580   31.2586 C   0  0  2  0  0  0  0  0  0  0  0  0
   -0.6231   -3.4454   32.3113 C   0  0  0  0  0  0  0  0  0  0  0  0
   -0.8006   -0.9539   31.7485 C   0  0  0  0  0  0  0  0  0  0  0  0
   -2.1495   -0.8822   32.3630 C   0  0  0  0  0  0  0  0  0  0  0  0
   -3.3308   -1.5547   32.1841 C   0  0  0  0  0  0  0  0  0  0  0  0
   -4.1774   -1.0424   33.1762 C   0  0  0  0  0  0  0  0  0  0  0  0
   -3.5919   -0.0781   33.8873 N   0  0  0  0  0  0  0  0  0  0  0  0
   -2.3040    0.0164   33.3779 O   0  0  0  0  0  0  0  0  0  0  0  0
   -1.6476   -0.5940   27.7961 C   0  0  0  0  0  0  0  0  0  0  0  0
   -1.7777    0.6944   27.3290 C   0  0  0  0  0  0  0  0  0  0  0  0
   -0.7478    1.6016   27.4031 C   0  0  0  0  0  0  0  0  0  0  0  0
   -1.0957    2.8072   26.8669 O   0  0  0  0  0  0  0  0  0  0  0  0
   -2.4813    2.5759   26.5370 C   0  0  0  0  0  0  0  0  0  0  0  0
   -2.8860    1.2102   26.7351 O   0  0  0  0  0  0  0  0  0  0  0  0
  1  2  1  0
  2  3  1  0
  3  4  2  0
  4  5  1  0
  5  6  1  0
  6  7  1  0
  7  8  1  0
  8  9  1  1
  8 10  1  0
 10 11  1  0
 11 12  2  0
 12 13  1  0
 13 14  2  0
 14 15  1  0
  5 16  2  0
 16 17  1  0
 17 18  2  0
 18 19  1  0
 19 20  1  0
 20 21  1  0
 18  3  1  0
 15 11  1  0
 21 17  1  0
M  END
>  <HIPPO Pose ID>  (4) 
842

>  <scratch_subdir>  (4) 
/opt/xchem-fragalysis-2/maxwin/BulkDock/SCRATCH/350563/C2022-P59

>  <ref_mols>  (4) 
7gp9-a,7goy-a

>  <original SMILES>  (4) 
COc1cc(CN[C@H](C)Cc2ccno2)cc2c1OCO2

>  <HIPPO Compound ID>  (4) 
2022

>  <original ID>  (4) 
ZBTYMXBQBXMSMR-SNVBAGLBSA-N

>  <alias>  (4) 
None

>  <fragmenstein_runtime>  (4) 
1.452699

>  <score_inspiration>  (4) 
0.689916

>  <name>  (4) 
ZBTYMXBQBXMSMR-SNVBAGLBSA-N

>  <fragmenstein_mode>  (4) 
expansion

>  <fragmenstein_error>  (4) 
None

>  <fragmenstein_outcome>  (4) 
acceptable

>  <inchikey>  (4) 
ZBTYMXBQBXMSMR-SNVBAGLBSA-N

>  <tags>  (4) 
Fragmenstein placed

>  <SLURM_JOB_ID>  (4) 
350563

>  <energy_score>  (4) 
-40.295512

>  <ref_pdb>  (4) 
7goy-a

>  <distance_score>  (4) 
0.81066

>  <csv_name>  (4) 
D68EV3C_iter1_knitwork_pure_split1000_batch002.csv

$$$$
1206
     RDKit          3D

 16 18  0  0  0  0  0  0  0  0999 V2000
   -2.1177   -1.0812   32.4184 C   0  0  0  0  0  0  0  0  0  0  0  0
   -1.0595   -1.0817   31.4993 C   0  0  0  0  0  0  0  0  0  0  0  0
   -1.2615   -2.2239   30.7585 C   0  0  0  0  0  0  0  0  0  0  0  0
   -0.6075   -2.8291   29.5659 C   0  0  0  0  0  0  0  0  0  0  0  0
    0.4096   -2.0030   28.9074 N   0  0  0  0  0  0  0  0  0  0  0  0
   -0.0011   -0.7680   28.3700 C   0  0  0  0  0  0  0  0  0  0  0  0
    0.9400    0.2874   28.3318 C   0  0  0  0  0  0  0  0  0  0  0  0
    0.6102    1.5485   27.8232 C   0  0  0  0  0  0  0  0  0  0  0  0
   -0.6580    1.7225   27.3215 C   0  0  0  0  0  0  0  0  0  0  0  0
   -1.5685    0.6972   27.3013 C   0  0  0  0  0  0  0  0  0  0  0  0
   -1.2674   -0.5553   27.8014 C   0  0  0  0  0  0  0  0  0  0  0  0
   -2.7436    1.0687   26.7266 O   0  0  0  0  0  0  0  0  0  0  0  0
   -2.4946    2.4602   26.4518 C   0  0  0  0  0  0  0  0  0  0  0  0
   -1.1453    2.8657   26.7717 O   0  0  0  0  0  0  0  0  0  0  0  0
   -2.3438   -2.8856   31.2490 O   0  0  0  0  0  0  0  0  0  0  0  0
   -2.9027   -2.1507   32.2781 N   0  0  0  0  0  0  0  0  0  0  0  0
  1  2  1  0
  2  3  2  0
  3  4  1  0
  4  5  1  0
  5  6  1  0
  6  7  2  0
  7  8  1  0
  8  9  2  0
  9 10  1  0
 10 11  2  0
 10 12  1  0
 12 13  1  0
 13 14  1  0
  3 15  1  0
 15 16  1  0
 16  1  2  0
 11  6  1  0
 14  9  1  0
M  END
>  <HIPPO Pose ID>  (5) 
1206

>  <scratch_subdir>  (5) 
/opt/xchem-fragalysis-2/maxwin/BulkDock/SCRATCH/350563/C2074-P13

>  <ref_mols>  (5) 
7gp9-a,7goy-a

>  <original SMILES>  (5) 
c1cc(CNc2ccc3c(c2)OCO3)on1

>  <HIPPO Compound ID>  (5) 
2074

>  <original ID>  (5) 
BWWXGHHHLUEPOW-UHFFFAOYSA-N

>  <alias>  (5) 
None

>  <fragmenstein_runtime>  (5) 
1.152381

>  <score_inspiration>  (5) 
0.753208

>  <name>  (5) 
BWWXGHHHLUEPOW-UHFFFAOYSA-N

>  <fragmenstein_mode>  (5) 
expansion

>  <fragmenstein_error>  (5) 
None

>  <fragmenstein_outcome>  (5) 
acceptable

>  <inchikey>  (5) 
BWWXGHHHLUEPOW-UHFFFAOYSA-N

>  <tags>  (5) 
Fragmenstein placed

>  <SLURM_JOB_ID>  (5) 
350563

>  <energy_score>  (5) 
-31.193048

>  <ref_pdb>  (5) 
7gp9-a

>  <distance_score>  (5) 
0.742975

>  <csv_name>  (5) 
D68EV3C_iter1_knitwork_pure_split1000_batch002.csv

$$$$
1210
     RDKit          3D

 16 18  0  0  0  0  0  0  0  0999 V2000
   -2.1467   -1.0494   32.3969 C   0  0  0  0  0  0  0  0  0  0  0  0
   -1.0812   -1.0566   31.4857 C   0  0  0  0  0  0  0  0  0  0  0  0
   -1.2695   -2.2117   30.7615 C   0  0  0  0  0  0  0  0  0  0  0  0
   -0.6033   -2.8311   29.5826 C   0  0  0  0  0  0  0  0  0  0  0  0
    0.4058   -2.0093   28.9085 N   0  0  0  0  0  0  0  0  0  0  0  0
   -0.0119   -0.7837   28.3553 C   0  0  0  0  0  0  0  0  0  0  0  0
    0.9304    0.2689   28.2828 C   0  0  0  0  0  0  0  0  0  0  0  0
    0.5924    1.5237   27.7642 C   0  0  0  0  0  0  0  0  0  0  0  0
   -0.6865    1.6943   27.2896 C   0  0  0  0  0  0  0  0  0  0  0  0
   -1.5982    0.6697   27.2993 C   0  0  0  0  0  0  0  0  0  0  0  0
   -1.2879   -0.5777   27.8061 C   0  0  0  0  0  0  0  0  0  0  0  0
   -2.7872    1.0376   26.7516 O   0  0  0  0  0  0  0  0  0  0  0  0
   -2.5446    2.4282   26.4653 C   0  0  0  0  0  0  0  0  0  0  0  0
   -1.1868    2.8342   26.7445 O   0  0  0  0  0  0  0  0  0  0  0  0
   -2.3504   -2.8733   31.2553 O   0  0  0  0  0  0  0  0  0  0  0  0
   -2.9222   -2.1277   32.2695 N   0  0  0  0  0  0  0  0  0  0  0  0
  1  2  1  0
  2  3  2  0
  3  4  1  0
  4  5  1  0
  5  6  1  0
  6  7  2  0
  7  8  1  0
  8  9  2  0
  9 10  1  0
 10 11  2  0
 10 12  1  0
 12 13  1  0
 13 14  1  0
  3 15  1  0
 15 16  1  0
 16  1  2  0
 11  6  1  0
 14  9  1  0
M  END
>  <HIPPO Pose ID>  (6) 
1210

>  <scratch_subdir>  (6) 
/opt/xchem-fragalysis-2/maxwin/BulkDock/SCRATCH/350563/C2074-P59

>  <ref_mols>  (6) 
7gp9-a,7goy-a

>  <original SMILES>  (6) 
c1cc(CNc2ccc3c(c2)OCO3)on1

>  <HIPPO Compound ID>  (6) 
2074

>  <original ID>  (6) 
BWWXGHHHLUEPOW-UHFFFAOYSA-N

>  <alias>  (6) 
None

>  <fragmenstein_runtime>  (6) 
1.202977

>  <score_inspiration>  (6) 
0.76063

>  <name>  (6) 
BWWXGHHHLUEPOW-UHFFFAOYSA-N

>  <fragmenstein_mode>  (6) 
expansion

>  <fragmenstein_error>  (6) 
None

>  <fragmenstein_outcome>  (6) 
acceptable

>  <inchikey>  (6) 
BWWXGHHHLUEPOW-UHFFFAOYSA-N

>  <tags>  (6) 
Fragmenstein placed

>  <SLURM_JOB_ID>  (6) 
350563

>  <energy_score>  (6) 
-31.194568

>  <ref_pdb>  (6) 
7goy-a

>  <distance_score>  (6) 
0.734497

>  <csv_name>  (6) 
D68EV3C_iter1_knitwork_pure_split1000_batch002.csv

$$$$
1383
     RDKit          3D

 21 23  0  0  0  0  0  0  0  0999 V2000
   -2.1059   -2.1863   29.6719 C   0  0  0  0  0  0  0  0  0  0  0  0
   -0.7164   -2.5201   29.9071 N   0  0  0  0  0  0  0  0  0  0  0  0
    0.2528   -1.9610   28.9399 C   0  0  0  0  0  0  0  0  0  0  0  0
   -0.0604   -0.5645   28.4319 C   0  0  0  0  0  0  0  0  0  0  0  0
    0.6742    0.5511   28.8818 C   0  0  0  0  0  0  0  0  0  0  0  0
    0.3377    1.8466   28.4659 C   0  0  0  0  0  0  0  0  0  0  0  0
   -0.7473    2.0021   27.6287 C   0  0  0  0  0  0  0  0  0  0  0  0
   -1.4643    0.9283   27.1781 C   0  0  0  0  0  0  0  0  0  0  0  0
   -1.1237   -0.3549   27.5312 C   0  0  0  0  0  0  0  0  0  0  0  0
   -2.5000    1.2842   26.3754 O   0  0  0  0  0  0  0  0  0  0  0  0
   -2.4102    2.7214   26.4447 C   0  0  0  0  0  0  0  0  0  0  0  0
   -1.2360    3.1782   27.1555 O   0  0  0  0  0  0  0  0  0  0  0  0
   -0.3123   -2.8458   31.4931 S   0  0  0  0  0  0  0  0  0  0  0  0
   -1.2880   -3.8054   31.9796 O   0  0  0  0  0  0  0  0  0  0  0  0
    1.0952   -3.1808   31.5289 O   0  0  0  0  0  0  0  0  0  0  0  0
   -0.5376   -1.2629   32.3195 C   0  0  0  0  0  0  0  0  0  0  0  0
   -1.9065   -0.9244   32.8061 C   0  0  0  0  0  0  0  0  0  0  0  0
   -3.0983   -1.6829   32.8811 C   0  0  0  0  0  0  0  0  0  0  0  0
   -3.9923   -0.8840   33.5358 C   0  0  0  0  0  0  0  0  0  0  0  0
   -3.4025    0.2908   33.8319 O   0  0  0  0  0  0  0  0  0  0  0  0
   -2.1026    0.2841   33.3623 N   0  0  0  0  0  0  0  0  0  0  0  0
  1  2  1  0
  2  3  1  0
  3  4  1  0
  4  5  2  0
  5  6  1  0
  6  7  2  0
  7  8  1  0
  8  9  2  0
  8 10  1  0
 10 11  1  0
 11 12  1  0
  2 13  1  0
 13 14  2  0
 13 15  2  0
 13 16  1  0
 16 17  1  0
 17 18  1  0
 18 19  2  0
 19 20  1  0
 20 21  1  0
  9  4  1  0
 21 17  2  0
 12  7  1  0
M  END
>  <HIPPO Pose ID>  (7) 
1383

>  <scratch_subdir>  (7) 
/opt/xchem-fragalysis-2/maxwin/BulkDock/SCRATCH/350563/C2096-P13

>  <ref_mols>  (7) 
7gp9-a,7goy-a

>  <original SMILES>  (7) 
CN(Cc1ccc2c(c1)OCO2)S(=O)(=O)Cc1ccon1

>  <HIPPO Compound ID>  (7) 
2096

>  <original ID>  (7) 
NUKPEHAZTOWAPU-UHFFFAOYSA-N

>  <alias>  (7) 
None

>  <fragmenstein_runtime>  (7) 
2.143808

>  <score_inspiration>  (7) 
0.638238

>  <name>  (7) 
NUKPEHAZTOWAPU-UHFFFAOYSA-N

>  <fragmenstein_mode>  (7) 
expansion

>  <fragmenstein_error>  (7) 
None

>  <fragmenstein_outcome>  (7) 
acceptable

>  <inchikey>  (7) 
NUKPEHAZTOWAPU-UHFFFAOYSA-N

>  <tags>  (7) 
Fragmenstein placed

>  <SLURM_JOB_ID>  (7) 
350563

>  <energy_score>  (7) 
-34.350443

>  <ref_pdb>  (7) 
7gp9-a

>  <distance_score>  (7) 
0.953223

>  <csv_name>  (7) 
D68EV3C_iter1_knitwork_pure_split1000_batch002.csv

$$$$
1386
     RDKit          3D

 21 23  0  0  0  0  0  0  0  0999 V2000
   -2.2465   -2.0260   29.7117 C   0  0  0  0  0  0  0  0  0  0  0  0
   -0.8779   -2.4779   29.8988 N   0  0  0  0  0  0  0  0  0  0  0  0
    0.1145   -1.9840   28.9169 C   0  0  0  0  0  0  0  0  0  0  0  0
   -0.1446   -0.5848   28.3918 C   0  0  0  0  0  0  0  0  0  0  0  0
    0.5983    0.5166   28.8625 C   0  0  0  0  0  0  0  0  0  0  0  0
    0.2844    1.8189   28.4523 C   0  0  0  0  0  0  0  0  0  0  0  0
   -0.7875    1.9930   27.6020 C   0  0  0  0  0  0  0  0  0  0  0  0
   -1.5081    0.9309   27.1278 C   0  0  0  0  0  0  0  0  0  0  0  0
   -1.1880   -0.3590   27.4730 C   0  0  0  0  0  0  0  0  0  0  0  0
   -2.5328    1.3065   26.3202 O   0  0  0  0  0  0  0  0  0  0  0  0
   -2.4367    2.7416   26.4190 C   0  0  0  0  0  0  0  0  0  0  0  0
   -1.2634    3.1796   27.1420 O   0  0  0  0  0  0  0  0  0  0  0  0
   -0.4494   -2.9000   31.4550 S   0  0  0  0  0  0  0  0  0  0  0  0
   -1.4617   -3.8322   31.9208 O   0  0  0  0  0  0  0  0  0  0  0  0
    0.9395   -3.3067   31.4421 O   0  0  0  0  0  0  0  0  0  0  0  0
   -0.5753   -1.3486   32.3580 C   0  0  0  0  0  0  0  0  0  0  0  0
   -1.9242   -0.9514   32.8571 C   0  0  0  0  0  0  0  0  0  0  0  0
   -3.1404   -1.6675   32.9635 C   0  0  0  0  0  0  0  0  0  0  0  0
   -3.9980   -0.8254   33.6120 C   0  0  0  0  0  0  0  0  0  0  0  0
   -3.3624    0.3317   33.8817 O   0  0  0  0  0  0  0  0  0  0  0  0
   -2.0691    0.2706   33.3981 N   0  0  0  0  0  0  0  0  0  0  0  0
  1  2  1  0
  2  3  1  0
  3  4  1  0
  4  5  2  0
  5  6  1  0
  6  7  2  0
  7  8  1  0
  8  9  2  0
  8 10  1  0
 10 11  1  0
 11 12  1  0
  2 13  1  0
 13 14  2  0
 13 15  2  0
 13 16  1  0
 16 17  1  0
 17 18  1  0
 18 19  2  0
 19 20  1  0
 20 21  1  0
  9  4  1  0
 21 17  2  0
 12  7  1  0
M  END
>  <HIPPO Pose ID>  (8) 
1386

>  <scratch_subdir>  (8) 
/opt/xchem-fragalysis-2/maxwin/BulkDock/SCRATCH/350563/C2096-P59

>  <ref_mols>  (8) 
7gp9-a,7goy-a

>  <original SMILES>  (8) 
CN(Cc1ccc2c(c1)OCO2)S(=O)(=O)Cc1ccon1

>  <HIPPO Compound ID>  (8) 
2096

>  <original ID>  (8) 
NUKPEHAZTOWAPU-UHFFFAOYSA-N

>  <alias>  (8) 
None

>  <fragmenstein_runtime>  (8) 
2.16904

>  <score_inspiration>  (8) 
0.654058

>  <name>  (8) 
NUKPEHAZTOWAPU-UHFFFAOYSA-N

>  <fragmenstein_mode>  (8) 
expansion

>  <fragmenstein_error>  (8) 
None

>  <fragmenstein_outcome>  (8) 
acceptable

>  <inchikey>  (8) 
NUKPEHAZTOWAPU-UHFFFAOYSA-N

>  <tags>  (8) 
Fragmenstein placed

>  <SLURM_JOB_ID>  (8) 
350563

>  <energy_score>  (8) 
-34.537309

>  <ref_pdb>  (8) 
7goy-a

>  <distance_score>  (8) 
0.971704

>  <csv_name>  (8) 
D68EV3C_iter1_knitwork_pure_split1000_batch002.csv

$$$$
1501
     RDKit          3D

 18 20  0  0  0  0  0  0  0  0999 V2000
    3.0176    0.7788   28.8818 C   0  0  0  0  0  0  0  0  0  0  0  0
    1.9444   -0.1490   28.9957 O   0  0  0  0  0  0  0  0  0  0  0  0
    0.7497    0.2011   28.4162 C   0  0  0  0  0  0  0  0  0  0  0  0
    0.4687    1.4840   27.9277 C   0  0  0  0  0  0  0  0  0  0  0  0
   -0.7659    1.7056   27.3572 C   0  0  0  0  0  0  0  0  0  0  0  0
   -1.7074    0.7153   27.2552 C   0  0  0  0  0  0  0  0  0  0  0  0
   -1.4727   -0.5545   27.7332 C   0  0  0  0  0  0  0  0  0  0  0  0
   -0.2316   -0.8259   28.3448 C   0  0  0  0  0  0  0  0  0  0  0  0
    0.0691   -2.2201   28.8598 C   0  0  0  0  0  0  0  0  0  0  0  0
   -1.0310   -2.8138   29.6033 N   0  0  0  0  0  0  0  0  0  0  0  0
   -1.4742   -2.3325   30.7869 C   0  0  0  0  0  0  0  0  0  0  0  0
   -0.8652   -1.3058   31.5463 C   0  0  0  0  0  0  0  0  0  0  0  0
   -1.7265   -1.0929   32.5878 C   0  0  0  0  0  0  0  0  0  0  0  0
   -2.7594   -1.9618   32.5004 O   0  0  0  0  0  0  0  0  0  0  0  0
   -2.5902   -2.7600   31.3869 N   0  0  0  0  0  0  0  0  0  0  0  0
   -2.8351    1.1414   26.6288 O   0  0  0  0  0  0  0  0  0  0  0  0
   -2.5362    2.5365   26.4347 C   0  0  0  0  0  0  0  0  0  0  0  0
   -1.1869    2.8812   26.8173 O   0  0  0  0  0  0  0  0  0  0  0  0
  1  2  1  0
  2  3  1  0
  3  4  2  0
  4  5  1  0
  5  6  2  0
  6  7  1  0
  7  8  2  0
  8  9  1  0
  9 10  1  0
 10 11  1  0
 11 12  1  0
 12 13  2  0
 13 14  1  0
 14 15  1  0
  6 16  1  0
 16 17  1  0
 17 18  1  0
  8  3  1  0
 15 11  2  0
 18  5  1  0
M  END
>  <HIPPO Pose ID>  (9) 
1501

>  <scratch_subdir>  (9) 
/opt/xchem-fragalysis-2/maxwin/BulkDock/SCRATCH/350563/C2118-P13

>  <ref_mols>  (9) 
7gp9-a,7goy-a

>  <original SMILES>  (9) 
COc1cc2c(cc1CNc1ccon1)OCO2

>  <HIPPO Compound ID>  (9) 
2118

>  <original ID>  (9) 
FTPXADQAPDZZPD-UHFFFAOYSA-N

>  <alias>  (9) 
None

>  <fragmenstein_runtime>  (9) 
1.036658

>  <score_inspiration>  (9) 
0.754198

>  <name>  (9) 
FTPXADQAPDZZPD-UHFFFAOYSA-N

>  <fragmenstein_mode>  (9) 
expansion

>  <fragmenstein_error>  (9) 
None

>  <fragmenstein_outcome>  (9) 
acceptable

>  <inchikey>  (9) 
FTPXADQAPDZZPD-UHFFFAOYSA-N

>  <tags>  (9) 
Fragmenstein placed

>  <SLURM_JOB_ID>  (9) 
350563

>  <energy_score>  (9) 
-24.612728

>  <ref_pdb>  (9) 
7gp9-a

>  <distance_score>  (9) 
0.754038

>  <csv_name>  (9) 
D68EV3C_iter1_knitwork_pure_split1000_batch002.csv

$$$$
1503
     RDKit          3D

 18 20  0  0  0  0  0  0  0  0999 V2000
    2.8663    0.9126   29.1844 C   0  0  0  0  0  0  0  0  0  0  0  0
    1.8878   -0.1104   29.0452 O   0  0  0  0  0  0  0  0  0  0  0  0
    0.7013    0.2270   28.4420 C   0  0  0  0  0  0  0  0  0  0  0  0
    0.4112    1.5073   27.9523 C   0  0  0  0  0  0  0  0  0  0  0  0
   -0.8167    1.7142   27.3612 C   0  0  0  0  0  0  0  0  0  0  0  0
   -1.7421    0.7115   27.2360 C   0  0  0  0  0  0  0  0  0  0  0  0
   -1.4946   -0.5586   27.7037 C   0  0  0  0  0  0  0  0  0  0  0  0
   -0.2600   -0.8157   28.3349 C   0  0  0  0  0  0  0  0  0  0  0  0
    0.0437   -2.2096   28.8480 C   0  0  0  0  0  0  0  0  0  0  0  0
   -1.0545   -2.7964   29.6006 N   0  0  0  0  0  0  0  0  0  0  0  0
   -1.4936   -2.3021   30.7812 C   0  0  0  0  0  0  0  0  0  0  0  0
   -0.8597   -1.2973   31.5489 C   0  0  0  0  0  0  0  0  0  0  0  0
   -1.7220   -1.0621   32.5850 C   0  0  0  0  0  0  0  0  0  0  0  0
   -2.7800   -1.8990   32.4871 O   0  0  0  0  0  0  0  0  0  0  0  0
   -2.6274   -2.6961   31.3710 N   0  0  0  0  0  0  0  0  0  0  0  0
   -2.8698    1.1269   26.6035 O   0  0  0  0  0  0  0  0  0  0  0  0
   -2.5889    2.5279   26.4273 C   0  0  0  0  0  0  0  0  0  0  0  0
   -1.2477    2.8887   26.8267 O   0  0  0  0  0  0  0  0  0  0  0  0
  1  2  1  0
  2  3  1  0
  3  4  2  0
  4  5  1  0
  5  6  2  0
  6  7  1  0
  7  8  2  0
  8  9  1  0
  9 10  1  0
 10 11  1  0
 11 12  1  0
 12 13  2  0
 13 14  1  0
 14 15  1  0
  6 16  1  0
 16 17  1  0
 17 18  1  0
  8  3  1  0
 15 11  2  0
 18  5  1  0
M  END
>  <HIPPO Pose ID>  (10) 
1503

>  <scratch_subdir>  (10) 
/opt/xchem-fragalysis-2/maxwin/BulkDock/SCRATCH/350563/C2118-P59

>  <ref_mols>  (10) 
7gp9-a,7goy-a

>  <original SMILES>  (10) 
COc1cc2c(cc1CNc1ccon1)OCO2

>  <HIPPO Compound ID>  (10) 
2118

>  <original ID>  (10) 
FTPXADQAPDZZPD-UHFFFAOYSA-N

>  <alias>  (10) 
None

>  <fragmenstein_runtime>  (10) 
1.129179

>  <score_inspiration>  (10) 
0.758562

>  <name>  (10) 
FTPXADQAPDZZPD-UHFFFAOYSA-N

>  <fragmenstein_mode>  (10) 
expansion

>  <fragmenstein_error>  (10) 
None

>  <fragmenstein_outcome>  (10) 
acceptable

>  <inchikey>  (10) 
FTPXADQAPDZZPD-UHFFFAOYSA-N

>  <tags>  (10) 
Fragmenstein placed

>  <SLURM_JOB_ID>  (10) 
350563

>  <energy_score>  (10) 
-24.708887

>  <ref_pdb>  (10) 
7goy-a

>  <distance_score>  (10) 
0.748862

>  <csv_name>  (10) 
D68EV3C_iter1_knitwork_pure_split1000_batch002.csv

$$$$
1614
     RDKit          3D

 22 24  0  0  0  0  0  0  0  0999 V2000
   -1.4053    0.0589   31.2403 O   0  0  0  0  0  0  0  0  0  0  0  0
   -1.1264   -1.1213   31.9893 C   0  0  1  0  0  0  0  0  0  0  0  0
   -2.4417   -1.7904   32.4106 C   0  0  0  0  0  0  0  0  0  0  0  0
   -3.3163   -0.8865   33.1794 N   0  0  0  0  0  0  0  0  0  0  0  0
   -4.2379   -1.7027   33.9722 C   0  0  0  0  0  0  0  0  0  0  0  0
   -5.4042   -0.9143   34.4379 C   0  0  0  0  0  0  0  0  0  0  0  0
   -5.6002   -0.2814   35.6855 C   0  0  0  0  0  0  0  0  0  0  0  0
   -6.8825    0.1947   35.6182 C   0  0  0  0  0  0  0  0  0  0  0  0
   -7.4239   -0.1275   34.4213 O   0  0  0  0  0  0  0  0  0  0  0  0
   -6.4983   -0.8261   33.6721 N   0  0  0  0  0  0  0  0  0  0  0  0
   -0.2415   -2.0881   31.1890 C   0  0  0  0  0  0  0  0  0  0  0  0
   -0.9342   -2.5795   30.0404 O   0  0  0  0  0  0  0  0  0  0  0  0
   -0.2153   -2.3913   28.8177 C   0  0  0  0  0  0  0  0  0  0  0  0
   -0.3889   -0.9849   28.3018 C   0  0  0  0  0  0  0  0  0  0  0  0
    0.6388   -0.0238   28.4401 C   0  0  0  0  0  0  0  0  0  0  0  0
    0.4629    1.2887   27.9881 C   0  0  0  0  0  0  0  0  0  0  0  0
   -0.7415    1.6099   27.4019 C   0  0  0  0  0  0  0  0  0  0  0  0
   -1.7445    0.6835   27.2585 C   0  0  0  0  0  0  0  0  0  0  0  0
   -1.6019   -0.6148   27.6992 C   0  0  0  0  0  0  0  0  0  0  0  0
   -2.8381    1.2002   26.6389 O   0  0  0  0  0  0  0  0  0  0  0  0
   -2.4481    2.5784   26.4940 C   0  0  0  0  0  0  0  0  0  0  0  0
   -1.0804    2.8242   26.8920 O   0  0  0  0  0  0  0  0  0  0  0  0
  2  1  1  6
  2  3  1  0
  3  4  1  0
  4  5  1  0
  5  6  1  0
  6  7  1  0
  7  8  2  0
  8  9  1  0
  9 10  1  0
  2 11  1  0
 11 12  1  0
 12 13  1  0
 13 14  1  0
 14 15  2  0
 15 16  1  0
 16 17  2  0
 17 18  1  0
 18 19  2  0
 18 20  1  0
 20 21  1  0
 21 22  1  0
 10  6  2  0
 19 14  1  0
 22 17  1  0
M  END
>  <HIPPO Pose ID>  (11) 
1614

>  <scratch_subdir>  (11) 
/opt/xchem-fragalysis-2/maxwin/BulkDock/SCRATCH/350563/C2134-P13

>  <ref_mols>  (11) 
7gp9-a,7goy-a

>  <original SMILES>  (11) 
O[C@@H](CNCc1ccon1)COCc1ccc2c(c1)OCO2

>  <HIPPO Compound ID>  (11) 
2134

>  <original ID>  (11) 
HJCSXYYFDUKRNW-ZDUSSCGKSA-N

>  <alias>  (11) 
None

>  <fragmenstein_runtime>  (11) 
1.763322

>  <score_inspiration>  (11) 
0.706193

>  <name>  (11) 
HJCSXYYFDUKRNW-ZDUSSCGKSA-N

>  <fragmenstein_mode>  (11) 
expansion

>  <fragmenstein_error>  (11) 
None

>  <fragmenstein_outcome>  (11) 
acceptable

>  <inchikey>  (11) 
HJCSXYYFDUKRNW-ZDUSSCGKSA-N

>  <tags>  (11) 
Fragmenstein placed

>  <SLURM_JOB_ID>  (11) 
350563

>  <energy_score>  (11) 
-67.743482

>  <ref_pdb>  (11) 
7gp9-a

>  <distance_score>  (11) 
0.929788

>  <csv_name>  (11) 
D68EV3C_iter1_knitwork_pure_split1000_batch002.csv

$$$$
1622
     RDKit          3D

 22 24  0  0  0  0  0  0  0  0999 V2000
   -1.3850    0.0817   31.2193 O   0  0  0  0  0  0  0  0  0  0  0  0
   -1.1010   -1.0978   31.9671 C   0  0  1  0  0  0  0  0  0  0  0  0
   -2.4137   -1.7596   32.4052 C   0  0  0  0  0  0  0  0  0  0  0  0
   -3.2662   -0.8581   33.2018 N   0  0  0  0  0  0  0  0  0  0  0  0
   -4.1568   -1.6761   34.0241 C   0  0  0  0  0  0  0  0  0  0  0  0
   -5.3565   -0.9206   34.4619 C   0  0  0  0  0  0  0  0  0  0  0  0
   -5.6351   -0.3573   35.7271 C   0  0  0  0  0  0  0  0  0  0  0  0
   -6.9305    0.0759   35.6204 C   0  0  0  0  0  0  0  0  0  0  0  0
   -7.4035   -0.2060   34.3842 O   0  0  0  0  0  0  0  0  0  0  0  0
   -6.4107   -0.8163   33.6440 N   0  0  0  0  0  0  0  0  0  0  0  0
   -0.2290   -2.0709   31.1597 C   0  0  0  0  0  0  0  0  0  0  0  0
   -0.9400   -2.5771   30.0286 O   0  0  0  0  0  0  0  0  0  0  0  0
   -0.2411   -2.4008   28.7922 C   0  0  0  0  0  0  0  0  0  0  0  0
   -0.4200   -0.9987   28.2678 C   0  0  0  0  0  0  0  0  0  0  0  0
    0.6201   -0.0458   28.3656 C   0  0  0  0  0  0  0  0  0  0  0  0
    0.4418    1.2643   27.9084 C   0  0  0  0  0  0  0  0  0  0  0  0
   -0.7779    1.5914   27.3588 C   0  0  0  0  0  0  0  0  0  0  0  0
   -1.7925    0.6722   27.2527 C   0  0  0  0  0  0  0  0  0  0  0  0
   -1.6478   -0.6240   27.6981 C   0  0  0  0  0  0  0  0  0  0  0  0
   -2.9016    1.1943   26.6661 O   0  0  0  0  0  0  0  0  0  0  0  0
   -2.5066    2.5696   26.5066 C   0  0  0  0  0  0  0  0  0  0  0  0
   -1.1242    2.8062   26.8551 O   0  0  0  0  0  0  0  0  0  0  0  0
  2  1  1  6
  2  3  1  0
  3  4  1  0
  4  5  1  0
  5  6  1  0
  6  7  1  0
  7  8  2  0
  8  9  1  0
  9 10  1  0
  2 11  1  0
 11 12  1  0
 12 13  1  0
 13 14  1  0
 14 15  2  0
 15 16  1  0
 16 17  2  0
 17 18  1  0
 18 19  2  0
 18 20  1  0
 20 21  1  0
 21 22  1  0
 10  6  2  0
 19 14  1  0
 22 17  1  0
M  END
>  <HIPPO Pose ID>  (12) 
1622

>  <scratch_subdir>  (12) 
/opt/xchem-fragalysis-2/maxwin/BulkDock/SCRATCH/350563/C2134-P59

>  <ref_mols>  (12) 
7gp9-a,7goy-a

>  <original SMILES>  (12) 
O[C@@H](CNCc1ccon1)COCc1ccc2c(c1)OCO2

>  <HIPPO Compound ID>  (12) 
2134

>  <original ID>  (12) 
HJCSXYYFDUKRNW-ZDUSSCGKSA-N

>  <alias>  (12) 
None

>  <fragmenstein_runtime>  (12) 
1.89046

>  <score_inspiration>  (12) 
0.714289

>  <name>  (12) 
HJCSXYYFDUKRNW-ZDUSSCGKSA-N

>  <fragmenstein_mode>  (12) 
expansion

>  <fragmenstein_error>  (12) 
None

>  <fragmenstein_outcome>  (12) 
acceptable

>  <inchikey>  (12) 
HJCSXYYFDUKRNW-ZDUSSCGKSA-N

>  <tags>  (12) 
Fragmenstein placed

>  <SLURM_JOB_ID>  (12) 
350563

>  <energy_score>  (12) 
-66.955753

>  <ref_pdb>  (12) 
7goy-a

>  <distance_score>  (12) 
0.921646

>  <csv_name>  (12) 
D68EV3C_iter1_knitwork_pure_split1000_batch002.csv

$$$$
1655
     RDKit          3D

 22 24  0  0  0  0  0  0  0  0999 V2000
   -1.4814   -3.4069   32.0744 C   0  0  0  0  0  0  0  0  0  0  0  0
   -0.6260   -2.4854   31.2995 N   0  0  0  0  0  0  0  0  0  0  0  0
   -0.9787   -2.5862   29.8300 C   0  0  0  0  0  0  0  0  0  0  0  0
    0.0919   -2.0351   28.8825 C   0  0  0  0  0  0  0  0  0  0  0  0
   -0.2350   -0.6811   28.2929 C   0  0  0  0  0  0  0  0  0  0  0  0
    0.7196    0.3601   28.3436 C   0  0  0  0  0  0  0  0  0  0  0  0
    0.4364    1.6292   27.8317 C   0  0  0  0  0  0  0  0  0  0  0  0
   -0.7978    1.8248   27.2566 C   0  0  0  0  0  0  0  0  0  0  0  0
   -1.7209    0.8131   27.1672 C   0  0  0  0  0  0  0  0  0  0  0  0
   -1.4678   -0.4481   27.6614 C   0  0  0  0  0  0  0  0  0  0  0  0
   -2.8580    1.2077   26.5364 O   0  0  0  0  0  0  0  0  0  0  0  0
   -2.5910    2.6092   26.3431 C   0  0  0  0  0  0  0  0  0  0  0  0
   -1.2422    2.9834   26.7014 O   0  0  0  0  0  0  0  0  0  0  0  0
   -0.5933   -0.8827   31.9305 S   0  0  0  0  0  0  0  0  0  0  0  0
   -1.9596   -0.3924   31.9308 O   0  0  0  0  0  0  0  0  0  0  0  0
    0.4630   -0.1648   31.2566 O   0  0  0  0  0  0  0  0  0  0  0  0
   -0.0752   -1.1408   33.6346 C   0  0  0  0  0  0  0  0  0  0  0  0
    0.2189    0.1343   34.3364 C   0  0  0  0  0  0  0  0  0  0  0  0
   -0.6189    1.2579   34.5357 C   0  0  0  0  0  0  0  0  0  0  0  0
    0.1472    2.1264   35.2665 C   0  0  0  0  0  0  0  0  0  0  0  0
    1.3511    1.5613   35.5226 O   0  0  0  0  0  0  0  0  0  0  0  0
    1.3960    0.3003   34.9565 N   0  0  0  0  0  0  0  0  0  0  0  0
  1  2  1  0
  2  3  1  0
  3  4  1  0
  4  5  1  0
  5  6  2  0
  6  7  1  0
  7  8  2  0
  8  9  1  0
  9 10  2  0
  9 11  1  0
 11 12  1  0
 12 13  1  0
  2 14  1  0
 14 15  2  0
 14 16  2  0
 14 17  1  0
 17 18  1  0
 18 19  1  0
 19 20  2  0
 20 21  1  0
 21 22  1  0
 10  5  1  0
 22 18  2  0
 13  8  1  0
M  END
>  <HIPPO Pose ID>  (13) 
1655

>  <scratch_subdir>  (13) 
/opt/xchem-fragalysis-2/maxwin/BulkDock/SCRATCH/350563/C2138-P13

>  <ref_mols>  (13) 
7gp9-a,7goy-a

>  <original SMILES>  (13) 
CN(CCc1ccc2c(c1)OCO2)S(=O)(=O)Cc1ccon1

>  <HIPPO Compound ID>  (13) 
2138

>  <original ID>  (13) 
QMOJJRQLKNWOJS-UHFFFAOYSA-N

>  <alias>  (13) 
None

>  <fragmenstein_runtime>  (13) 
4.034361

>  <score_inspiration>  (13) 
0.545929

>  <name>  (13) 
QMOJJRQLKNWOJS-UHFFFAOYSA-N

>  <fragmenstein_mode>  (13) 
expansion

>  <fragmenstein_error>  (13) 
None

>  <fragmenstein_outcome>  (13) 
acceptable

>  <inchikey>  (13) 
QMOJJRQLKNWOJS-UHFFFAOYSA-N

>  <tags>  (13) 
Fragmenstein placed

>  <SLURM_JOB_ID>  (13) 
350563

>  <energy_score>  (13) 
-47.939311

>  <ref_pdb>  (13) 
7gp9-a

>  <distance_score>  (13) 
0.887416

>  <csv_name>  (13) 
D68EV3C_iter1_knitwork_pure_split1000_batch002.csv

$$$$
1664
     RDKit          3D

 22 24  0  0  0  0  0  0  0  0999 V2000
   -1.4343   -3.3836   32.0977 C   0  0  0  0  0  0  0  0  0  0  0  0
   -0.5939   -2.4676   31.3008 N   0  0  0  0  0  0  0  0  0  0  0  0
   -0.9660   -2.5814   29.8376 C   0  0  0  0  0  0  0  0  0  0  0  0
    0.0879   -2.0376   28.8677 C   0  0  0  0  0  0  0  0  0  0  0  0
   -0.2500   -0.6906   28.2700 C   0  0  0  0  0  0  0  0  0  0  0  0
    0.7080    0.3487   28.2904 C   0  0  0  0  0  0  0  0  0  0  0  0
    0.4169    1.6132   27.7727 C   0  0  0  0  0  0  0  0  0  0  0  0
   -0.8295    1.8062   27.2241 C   0  0  0  0  0  0  0  0  0  0  0  0
   -1.7561    0.7953   27.1622 C   0  0  0  0  0  0  0  0  0  0  0  0
   -1.4949   -0.4623   27.6608 C   0  0  0  0  0  0  0  0  0  0  0  0
   -2.9076    1.1881   26.5567 O   0  0  0  0  0  0  0  0  0  0  0  0
   -2.6436    2.5893   26.3540 C   0  0  0  0  0  0  0  0  0  0  0  0
   -1.2856    2.9625   26.6737 O   0  0  0  0  0  0  0  0  0  0  0  0
   -0.5511   -0.8609   31.9201 S   0  0  0  0  0  0  0  0  0  0  0  0
   -1.9201   -0.3786   31.9535 O   0  0  0  0  0  0  0  0  0  0  0  0
    0.4829   -0.1429   31.2135 O   0  0  0  0  0  0  0  0  0  0  0  0
    0.0155   -1.1082   33.6103 C   0  0  0  0  0  0  0  0  0  0  0  0
    0.3655    0.1655   34.2882 C   0  0  0  0  0  0  0  0  0  0  0  0
   -0.4186    1.3301   34.4668 C   0  0  0  0  0  0  0  0  0  0  0  0
    0.3876    2.1760   35.1808 C   0  0  0  0  0  0  0  0  0  0  0  0
    1.5638    1.5601   35.4483 O   0  0  0  0  0  0  0  0  0  0  0  0
    1.5492    0.2878   34.9063 N   0  0  0  0  0  0  0  0  0  0  0  0
  1  2  1  0
  2  3  1  0
  3  4  1  0
  4  5  1  0
  5  6  2  0
  6  7  1  0
  7  8  2  0
  8  9  1  0
  9 10  2  0
  9 11  1  0
 11 12  1  0
 12 13  1  0
  2 14  1  0
 14 15  2  0
 14 16  2  0
 14 17  1  0
 17 18  1  0
 18 19  1  0
 19 20  2  0
 20 21  1  0
 21 22  1  0
 10  5  1  0
 22 18  2  0
 13  8  1  0
M  END
>  <HIPPO Pose ID>  (14) 
1664

>  <scratch_subdir>  (14) 
/opt/xchem-fragalysis-2/maxwin/BulkDock/SCRATCH/350563/C2138-P59

>  <ref_mols>  (14) 
7gp9-a,7goy-a

>  <original SMILES>  (14) 
CN(CCc1ccc2c(c1)OCO2)S(=O)(=O)Cc1ccon1

>  <HIPPO Compound ID>  (14) 
2138

>  <original ID>  (14) 
QMOJJRQLKNWOJS-UHFFFAOYSA-N

>  <alias>  (14) 
None

>  <fragmenstein_runtime>  (14) 
3.95967

>  <score_inspiration>  (14) 
0.549872

>  <name>  (14) 
QMOJJRQLKNWOJS-UHFFFAOYSA-N

>  <fragmenstein_mode>  (14) 
expansion

>  <fragmenstein_error>  (14) 
None

>  <fragmenstein_outcome>  (14) 
acceptable

>  <inchikey>  (14) 
QMOJJRQLKNWOJS-UHFFFAOYSA-N

>  <tags>  (14) 
Fragmenstein placed

>  <SLURM_JOB_ID>  (14) 
350563

>  <energy_score>  (14) 
-47.92656

>  <ref_pdb>  (14) 
7goy-a

>  <distance_score>  (14) 
0.899139

>  <csv_name>  (14) 
D68EV3C_iter1_knitwork_pure_split1000_batch002.csv

$$$$
2259
     RDKit          3D

 22 24  0  0  0  0  0  0  0  0999 V2000
    0.5438    1.0919   30.3682 C   0  0  0  0  0  0  0  0  0  0  0  0
   -0.4369    0.5709   29.3022 C   0  0  1  0  0  0  0  0  0  0  0  0
   -1.4909   -0.3144   30.0276 C   0  0  0  0  0  0  0  0  0  0  0  0
   -0.9790   -1.6484   30.1779 N   0  0  0  0  0  0  0  0  0  0  0  0
   -0.3102   -2.3310   31.3808 C   0  0  0  0  0  0  0  0  0  0  0  0
   -0.1369   -1.9479   32.4640 O   0  0  0  0  0  0  0  0  0  0  0  0
    0.2274   -3.6268   30.9208 C   0  0  0  0  0  0  0  0  0  0  0  0
   -0.3286   -4.8258   31.3525 C   0  0  0  0  0  0  0  0  0  0  0  0
   -0.0008   -6.0064   30.6833 C   0  0  0  0  0  0  0  0  0  0  0  0
    0.9035   -5.9506   29.6031 C   0  0  0  0  0  0  0  0  0  0  0  0
    1.3539   -6.9023   28.6655 C   0  0  0  0  0  0  0  0  0  0  0  0
    2.3236   -6.3195   27.8804 C   0  0  0  0  0  0  0  0  0  0  0  0
    2.4094   -5.0042   28.2434 N   0  0  0  0  0  0  0  0  0  0  0  0
    3.3152   -4.0404   27.6549 C   0  0  0  0  0  0  0  0  0  0  0  0
    1.5269   -4.7492   29.2690 C   0  0  0  0  0  0  0  0  0  0  0  0
    1.2088   -3.5628   29.9209 C   0  0  0  0  0  0  0  0  0  0  0  0
   -1.1019    1.6228   28.4963 N   0  0  0  0  0  0  0  0  0  0  0  0
   -0.2619    2.7935   28.1948 C   0  0  0  0  0  0  0  0  0  0  0  0
   -1.0357    3.8720   27.4313 C   0  0  0  0  0  0  0  0  0  0  0  0
   -1.6508    3.3236   26.1546 C   0  0  0  0  0  0  0  0  0  0  0  0
   -2.4694    2.0824   26.4684 C   0  0  0  0  0  0  0  0  0  0  0  0
   -1.6487    1.0564   27.2464 C   0  0  0  0  0  0  0  0  0  0  0  0
  2  1  1  1
  2  3  1  0
  3  4  1  0
  4  5  1  0
  5  6  2  0
  5  7  1  0
  7  8  2  0
  8  9  1  0
  9 10  2  0
 10 11  1  0
 11 12  2  0
 12 13  1  0
 13 14  1  0
 13 15  1  0
 15 16  2  0
  2 17  1  0
 17 18  1  0
 18 19  1  0
 19 20  1  0
 20 21  1  0
 21 22  1  0
 16  7  1  0
 22 17  1  0
 15 10  1  0
M  END
>  <HIPPO Pose ID>  (15) 
2259

>  <scratch_subdir>  (15) 
/opt/xchem-fragalysis-2/maxwin/BulkDock/SCRATCH/350562/C5856-P40

>  <ref_mols>  (15) 
7gok-a,7gp2-a

>  <original SMILES>  (15) 
C[C@@H](CNC(=O)c1ccc2ccn(C)c2c1)N1CCCCC1

>  <HIPPO Compound ID>  (15) 
5856

>  <original ID>  (15) 
GWPDEXDIWDHEPZ-AWEZNQCLSA-N

>  <alias>  (15) 
None

>  <fragmenstein_runtime>  (15) 
6.079965

>  <score_inspiration>  (15) 
0.48736

>  <name>  (15) 
GWPDEXDIWDHEPZ-AWEZNQCLSA-N

>  <fragmenstein_mode>  (15) 
expansion

>  <fragmenstein_error>  (15) 
None

>  <fragmenstein_outcome>  (15) 
acceptable

>  <inchikey>  (15) 
GWPDEXDIWDHEPZ-AWEZNQCLSA-N

>  <tags>  (15) 
Fragmenstein placed

>  <SLURM_JOB_ID>  (15) 
350562

>  <energy_score>  (15) 
-17.713143

>  <ref_pdb>  (15) 
7gok-a

>  <distance_score>  (15) 
0.754345

>  <csv_name>  (15) 
D68EV3C_iter1_knitwork_pure_split1000_batch001.csv

$$$$
2269
     RDKit          3D

 22 24  0  0  0  0  0  0  0  0999 V2000
    0.3595    1.0072   30.4193 C   0  0  0  0  0  0  0  0  0  0  0  0
   -0.5226    0.5142   29.2550 C   0  0  1  0  0  0  0  0  0  0  0  0
   -1.5239   -0.5347   29.8307 C   0  0  0  0  0  0  0  0  0  0  0  0
   -0.8551   -1.8060   29.9250 N   0  0  0  0  0  0  0  0  0  0  0  0
   -0.2484   -2.5277   31.1394 C   0  0  0  0  0  0  0  0  0  0  0  0
   -0.2606   -2.2458   32.2674 O   0  0  0  0  0  0  0  0  0  0  0  0
    0.5196   -3.6959   30.6503 C   0  0  0  0  0  0  0  0  0  0  0  0
    0.2435   -4.9953   31.0602 C   0  0  0  0  0  0  0  0  0  0  0  0
    0.9162   -6.0590   30.4459 C   0  0  0  0  0  0  0  0  0  0  0  0
    1.8552   -5.7900   29.4177 C   0  0  0  0  0  0  0  0  0  0  0  0
    2.5787   -6.5964   28.4949 C   0  0  0  0  0  0  0  0  0  0  0  0
    3.2997   -5.7825   27.6565 C   0  0  0  0  0  0  0  0  0  0  0  0
    3.0731   -4.4939   28.0549 N   0  0  0  0  0  0  0  0  0  0  0  0
    3.7176   -3.3329   27.4786 C   0  0  0  0  0  0  0  0  0  0  0  0
    2.1447   -4.4721   29.0733 C   0  0  0  0  0  0  0  0  0  0  0  0
    1.5172   -3.4045   29.7056 C   0  0  0  0  0  0  0  0  0  0  0  0
   -1.2141    1.5914   28.5017 N   0  0  0  0  0  0  0  0  0  0  0  0
   -0.3863    2.7930   28.2828 C   0  0  0  0  0  0  0  0  0  0  0  0
   -1.1419    3.8934   27.5329 C   0  0  0  0  0  0  0  0  0  0  0  0
   -1.6908    3.3924   26.2086 C   0  0  0  0  0  0  0  0  0  0  0  0
   -2.5106    2.1349   26.4400 C   0  0  0  0  0  0  0  0  0  0  0  0
   -1.7072    1.0837   27.2030 C   0  0  0  0  0  0  0  0  0  0  0  0
  2  1  1  1
  2  3  1  0
  3  4  1  0
  4  5  1  0
  5  6  2  0
  5  7  1  0
  7  8  2  0
  8  9  1  0
  9 10  2  0
 10 11  1  0
 11 12  2  0
 12 13  1  0
 13 14  1  0
 13 15  1  0
 15 16  2  0
  2 17  1  0
 17 18  1  0
 18 19  1  0
 19 20  1  0
 20 21  1  0
 21 22  1  0
 16  7  1  0
 22 17  1  0
 15 10  1  0
M  END
>  <HIPPO Pose ID>  (16) 
2269

>  <scratch_subdir>  (16) 
/opt/xchem-fragalysis-2/maxwin/BulkDock/SCRATCH/350562/C5856-P44

>  <ref_mols>  (16) 
7gok-a,7gp2-a

>  <original SMILES>  (16) 
C[C@@H](CNC(=O)c1ccc2ccn(C)c2c1)N1CCCCC1

>  <HIPPO Compound ID>  (16) 
5856

>  <original ID>  (16) 
GWPDEXDIWDHEPZ-AWEZNQCLSA-N

>  <alias>  (16) 
None

>  <fragmenstein_runtime>  (16) 
7.675547

>  <score_inspiration>  (16) 
0.385023

>  <name>  (16) 
GWPDEXDIWDHEPZ-AWEZNQCLSA-N

>  <fragmenstein_mode>  (16) 
expansion

>  <fragmenstein_error>  (16) 
None

>  <fragmenstein_outcome>  (16) 
acceptable

>  <inchikey>  (16) 
GWPDEXDIWDHEPZ-AWEZNQCLSA-N

>  <tags>  (16) 
Fragmenstein placed

>  <SLURM_JOB_ID>  (16) 
350562

>  <energy_score>  (16) 
-17.749125

>  <ref_pdb>  (16) 
7gp2-a

>  <distance_score>  (16) 
0.943856

>  <csv_name>  (16) 
D68EV3C_iter1_knitwork_pure_split1000_batch001.csv

$$$$
2376
     RDKit          3D

 14 15  0  0  0  0  0  0  0  0999 V2000
   -2.5395   -3.0275   32.0371 N   0  0  0  0  0  0  0  0  0  0  0  0
   -1.9839   -2.0887   31.6387 C   0  0  0  0  0  0  0  0  0  0  0  0
   -1.3646   -0.9700   31.0123 C   0  0  0  0  0  0  0  0  0  0  0  0
   -1.0067    0.1014   31.7247 N   0  0  0  0  0  0  0  0  0  0  0  0
   -0.5952    1.0276   30.7668 O   0  0  0  0  0  0  0  0  0  0  0  0
   -0.8489    0.5396   29.5070 C   0  0  0  0  0  0  0  0  0  0  0  0
   -0.8734    1.4212   28.4681 N   0  0  0  0  0  0  0  0  0  0  0  0
   -1.4556    1.0276   27.1822 C   0  0  0  0  0  0  0  0  0  0  0  0
   -2.1470    2.2073   26.5034 C   0  0  0  0  0  0  0  0  0  0  0  0
   -1.2239    3.4115   26.4025 C   0  0  0  0  0  0  0  0  0  0  0  0
   -0.7048    3.7816   27.7858 C   0  0  0  0  0  0  0  0  0  0  0  0
   -0.0091    2.6019   28.4655 C   0  0  0  0  0  0  0  0  0  0  0  0
   -1.1301   -0.8005   29.6419 C   0  0  0  0  0  0  0  0  0  0  0  0
   -1.2609   -1.9990   28.4675 Cl  0  0  0  0  0  0  0  0  0  0  0  0
  1  2  3  0
  2  3  1  0
  3  4  2  0
  4  5  1  0
  5  6  1  0
  6  7  1  0
  7  8  1  0
  8  9  1  0
  9 10  1  0
 10 11  1  0
 11 12  1  0
  6 13  2  0
 13 14  1  0
 13  3  1  0
 12  7  1  0
M  END
>  <HIPPO Pose ID>  (17) 
2376

>  <scratch_subdir>  (17) 
/opt/xchem-fragalysis-2/maxwin/BulkDock/SCRATCH/350564/C3182-P44

>  <ref_mols>  (17) 
7gp2-a,7goy-a

>  <original SMILES>  (17) 
N#Cc1noc(N2CCCCC2)c1Cl

>  <HIPPO Compound ID>  (17) 
3182

>  <original ID>  (17) 
PDTZHWIYSPFLPG-UHFFFAOYSA-N

>  <alias>  (17) 
None

>  <fragmenstein_runtime>  (17) 
1.045834

>  <score_inspiration>  (17) 
0.663087

>  <name>  (17) 
PDTZHWIYSPFLPG-UHFFFAOYSA-N

>  <fragmenstein_mode>  (17) 
expansion

>  <fragmenstein_error>  (17) 
None

>  <fragmenstein_outcome>  (17) 
acceptable

>  <inchikey>  (17) 
PDTZHWIYSPFLPG-UHFFFAOYSA-N

>  <tags>  (17) 
Fragmenstein placed

>  <SLURM_JOB_ID>  (17) 
350564

>  <energy_score>  (17) 
-30.89351

>  <ref_pdb>  (17) 
7gp2-a

>  <distance_score>  (17) 
0.730307

>  <csv_name>  (17) 
D68EV3C_iter1_knitwork_pure_split1000_batch003.csv

$$$$
2381
     RDKit          3D

 14 15  0  0  0  0  0  0  0  0999 V2000
   -2.6259   -2.9845   32.0271 N   0  0  0  0  0  0  0  0  0  0  0  0
   -2.0291   -2.0707   31.6300 C   0  0  0  0  0  0  0  0  0  0  0  0
   -1.3718   -0.9740   31.0038 C   0  0  0  0  0  0  0  0  0  0  0  0
   -0.9987    0.0946   31.7131 N   0  0  0  0  0  0  0  0  0  0  0  0
   -0.5740    1.0121   30.7515 O   0  0  0  0  0  0  0  0  0  0  0  0
   -0.8348    0.5206   29.4946 C   0  0  0  0  0  0  0  0  0  0  0  0
   -0.8669    1.3989   28.4536 N   0  0  0  0  0  0  0  0  0  0  0  0
   -1.4869    1.0070   27.1846 C   0  0  0  0  0  0  0  0  0  0  0  0
   -2.1635    2.1954   26.5061 C   0  0  0  0  0  0  0  0  0  0  0  0
   -1.2175    3.3790   26.3789 C   0  0  0  0  0  0  0  0  0  0  0  0
   -0.6690    3.7511   27.7503 C   0  0  0  0  0  0  0  0  0  0  0  0
    0.0162    2.5645   28.4285 C   0  0  0  0  0  0  0  0  0  0  0  0
   -1.1243   -0.8171   29.6345 C   0  0  0  0  0  0  0  0  0  0  0  0
   -1.2608   -2.0187   28.4633 Cl  0  0  0  0  0  0  0  0  0  0  0  0
  1  2  3  0
  2  3  1  0
  3  4  2  0
  4  5  1  0
  5  6  1  0
  6  7  1  0
  7  8  1  0
  8  9  1  0
  9 10  1  0
 10 11  1  0
 11 12  1  0
  6 13  2  0
 13 14  1  0
 13  3  1  0
 12  7  1  0
M  END
>  <HIPPO Pose ID>  (18) 
2381

>  <scratch_subdir>  (18) 
/opt/xchem-fragalysis-2/maxwin/BulkDock/SCRATCH/350564/C3182-P59

>  <ref_mols>  (18) 
7gp2-a,7goy-a

>  <original SMILES>  (18) 
N#Cc1noc(N2CCCCC2)c1Cl

>  <HIPPO Compound ID>  (18) 
3182

>  <original ID>  (18) 
PDTZHWIYSPFLPG-UHFFFAOYSA-N

>  <alias>  (18) 
None

>  <fragmenstein_runtime>  (18) 
1.185553

>  <score_inspiration>  (18) 
0.671224

>  <name>  (18) 
PDTZHWIYSPFLPG-UHFFFAOYSA-N

>  <fragmenstein_mode>  (18) 
expansion

>  <fragmenstein_error>  (18) 
None

>  <fragmenstein_outcome>  (18) 
acceptable

>  <inchikey>  (18) 
PDTZHWIYSPFLPG-UHFFFAOYSA-N

>  <tags>  (18) 
Fragmenstein placed

>  <SLURM_JOB_ID>  (18) 
350564

>  <energy_score>  (18) 
-30.245149

>  <ref_pdb>  (18) 
7goy-a

>  <distance_score>  (18) 
0.718841

>  <csv_name>  (18) 
D68EV3C_iter1_knitwork_pure_split1000_batch003.csv

$$$$
2384
     RDKit          3D

 15 16  0  0  0  0  0  0  0  0999 V2000
   -3.9822   -0.7387   33.6269 N   0  0  0  0  0  0  0  0  0  0  0  0
   -3.0444   -1.1850   33.1051 C   0  0  0  0  0  0  0  0  0  0  0  0
   -1.8594   -1.7447   32.4361 C   0  0  0  0  0  0  0  0  0  0  0  0
   -1.2886   -0.7479   31.4882 C   0  0  0  0  0  0  0  0  0  0  0  0
   -0.7379    0.3798   31.9537 N   0  0  0  0  0  0  0  0  0  0  0  0
   -0.4066    1.1189   30.8341 O   0  0  0  0  0  0  0  0  0  0  0  0
   -0.8166    0.4748   29.6945 C   0  0  0  0  0  0  0  0  0  0  0  0
   -0.8014    1.1871   28.5319 N   0  0  0  0  0  0  0  0  0  0  0  0
   -1.4760    0.7097   27.3253 C   0  0  0  0  0  0  0  0  0  0  0  0
   -2.2687    1.8386   26.6637 C   0  0  0  0  0  0  0  0  0  0  0  0
   -1.4134    3.0761   26.4305 C   0  0  0  0  0  0  0  0  0  0  0  0
   -0.7739    3.5210   27.7394 C   0  0  0  0  0  0  0  0  0  0  0  0
    0.0247    2.3882   28.3844 C   0  0  0  0  0  0  0  0  0  0  0  0
   -1.2097   -0.7924   30.0760 C   0  0  0  0  0  0  0  0  0  0  0  0
   -1.5500   -2.1516   29.1374 Cl  0  0  0  0  0  0  0  0  0  0  0  0
  1  2  3  0
  2  3  1  0
  3  4  1  0
  4  5  2  0
  5  6  1  0
  6  7  1  0
  7  8  1  0
  8  9  1  0
  9 10  1  0
 10 11  1  0
 11 12  1  0
 12 13  1  0
  7 14  2  0
 14 15  1  0
 14  4  1  0
 13  8  1  0
M  END
>  <HIPPO Pose ID>  (19) 
2384

>  <scratch_subdir>  (19) 
/opt/xchem-fragalysis-2/maxwin/BulkDock/SCRATCH/350564/C3183-P44

>  <ref_mols>  (19) 
7gp2-a,7goy-a

>  <original SMILES>  (19) 
N#CCc1noc(N2CCCCC2)c1Cl

>  <HIPPO Compound ID>  (19) 
3183

>  <original ID>  (19) 
BILGHFAWFPMYNX-UHFFFAOYSA-N

>  <alias>  (19) 
None

>  <fragmenstein_runtime>  (19) 
1.206337

>  <score_inspiration>  (19) 
0.539643

>  <name>  (19) 
BILGHFAWFPMYNX-UHFFFAOYSA-N

>  <fragmenstein_mode>  (19) 
expansion

>  <fragmenstein_error>  (19) 
None

>  <fragmenstein_outcome>  (19) 
acceptable

>  <inchikey>  (19) 
BILGHFAWFPMYNX-UHFFFAOYSA-N

>  <tags>  (19) 
Fragmenstein placed

>  <SLURM_JOB_ID>  (19) 
350564

>  <energy_score>  (19) 
-24.588537

>  <ref_pdb>  (19) 
7gp2-a

>  <distance_score>  (19) 
0.944487

>  <csv_name>  (19) 
D68EV3C_iter1_knitwork_pure_split1000_batch003.csv

$$$$
2387
     RDKit          3D

 15 16  0  0  0  0  0  0  0  0999 V2000
   -3.9914   -0.7490   33.6168 N   0  0  0  0  0  0  0  0  0  0  0  0
   -3.0345   -1.1797   33.1171 C   0  0  0  0  0  0  0  0  0  0  0  0
   -1.8258   -1.7242   32.4798 C   0  0  0  0  0  0  0  0  0  0  0  0
   -1.2719   -0.7403   31.5089 C   0  0  0  0  0  0  0  0  0  0  0  0
   -0.6779    0.3752   31.9490 N   0  0  0  0  0  0  0  0  0  0  0  0
   -0.3707    1.1029   30.8144 O   0  0  0  0  0  0  0  0  0  0  0  0
   -0.8346    0.4636   29.6919 C   0  0  0  0  0  0  0  0  0  0  0  0
   -0.8377    1.1693   28.5244 N   0  0  0  0  0  0  0  0  0  0  0  0
   -1.5400    0.6902   27.3333 C   0  0  0  0  0  0  0  0  0  0  0  0
   -2.3136    1.8268   26.6625 C   0  0  0  0  0  0  0  0  0  0  0  0
   -1.4367    3.0444   26.4055 C   0  0  0  0  0  0  0  0  0  0  0  0
   -0.7722    3.4911   27.7010 C   0  0  0  0  0  0  0  0  0  0  0  0
    0.0123    2.3498   28.3479 C   0  0  0  0  0  0  0  0  0  0  0  0
   -1.2561   -0.7874   30.0953 C   0  0  0  0  0  0  0  0  0  0  0  0
   -1.6934   -2.1342   29.1825 Cl  0  0  0  0  0  0  0  0  0  0  0  0
  1  2  3  0
  2  3  1  0
  3  4  1  0
  4  5  2  0
  5  6  1  0
  6  7  1  0
  7  8  1  0
  8  9  1  0
  9 10  1  0
 10 11  1  0
 11 12  1  0
 12 13  1  0
  7 14  2  0
 14 15  1  0
 14  4  1  0
 13  8  1  0
M  END
>  <HIPPO Pose ID>  (20) 
2387

>  <scratch_subdir>  (20) 
/opt/xchem-fragalysis-2/maxwin/BulkDock/SCRATCH/350564/C3183-P59

>  <ref_mols>  (20) 
7gp2-a,7goy-a

>  <original SMILES>  (20) 
N#CCc1noc(N2CCCCC2)c1Cl

>  <HIPPO Compound ID>  (20) 
3183

>  <original ID>  (20) 
BILGHFAWFPMYNX-UHFFFAOYSA-N

>  <alias>  (20) 
None

>  <fragmenstein_runtime>  (20) 
1.366653

>  <score_inspiration>  (20) 
0.535357

>  <name>  (20) 
BILGHFAWFPMYNX-UHFFFAOYSA-N

>  <fragmenstein_mode>  (20) 
expansion

>  <fragmenstein_error>  (20) 
None

>  <fragmenstein_outcome>  (20) 
acceptable

>  <inchikey>  (20) 
BILGHFAWFPMYNX-UHFFFAOYSA-N

>  <tags>  (20) 
Fragmenstein placed

>  <SLURM_JOB_ID>  (20) 
350564

>  <energy_score>  (20) 
-25.201239

>  <ref_pdb>  (20) 
7goy-a

>  <distance_score>  (20) 
0.958617

>  <csv_name>  (20) 
D68EV3C_iter1_knitwork_pure_split1000_batch003.csv

$$$$
2408
     RDKit          3D

 25 28  0  0  0  0  0  0  0  0999 V2000
    2.2672   -6.5954   27.9399 C   0  0  0  0  0  0  0  0  0  0  0  0
    1.2369   -6.9847   28.7705 C   0  0  0  0  0  0  0  0  0  0  0  0
    0.8785   -5.8786   29.5712 C   0  0  0  0  0  0  0  0  0  0  0  0
   -0.0088   -5.6893   30.6413 C   0  0  0  0  0  0  0  0  0  0  0  0
   -0.1268   -4.4064   31.1943 C   0  0  0  0  0  0  0  0  0  0  0  0
    0.6022   -3.3149   30.6871 C   0  0  0  0  0  0  0  0  0  0  0  0
    0.4212   -1.9423   31.3197 C   0  0  0  0  0  0  0  0  0  0  0  0
    1.1437   -0.8028   30.7306 N   0  0  0  0  0  0  0  0  0  0  0  0
    0.6572   -0.3084   29.4316 C   0  0  0  0  0  0  0  0  0  0  0  0
   -0.7410    0.3292   29.5872 C   0  0  0  0  0  0  0  0  0  0  0  0
   -1.1922    1.3008   28.5887 N   0  0  0  0  0  0  0  0  0  0  0  0
   -1.5711    0.7126   27.3085 C   0  0  0  0  0  0  0  0  0  0  0  0
   -2.3256    1.7542   26.4769 C   0  0  0  0  0  0  0  0  0  0  0  0
   -1.5126    3.0287   26.2786 C   0  0  0  0  0  0  0  0  0  0  0  0
   -1.0170    3.5567   27.6181 C   0  0  0  0  0  0  0  0  0  0  0  0
   -0.3089    2.4597   28.4168 C   0  0  0  0  0  0  0  0  0  0  0  0
    2.5859   -0.7626   31.0330 C   0  0  2  0  0  0  0  0  0  0  0  0
    2.7772    0.0387   32.3409 C   0  0  0  0  0  0  0  0  0  0  0  0
    4.2044    0.5683   32.5123 C   0  0  0  0  0  0  0  0  0  0  0  0
    5.2255   -0.2796   31.7633 C   0  0  0  0  0  0  0  0  0  0  0  0
    4.9737   -0.3548   30.3235 N   0  0  0  0  0  0  0  0  0  0  0  0
    3.5554   -0.1973   29.9622 C   0  0  0  0  0  0  0  0  0  0  0  0
    1.4966   -3.5258   29.6303 C   0  0  0  0  0  0  0  0  0  0  0  0
    1.6233   -4.8046   29.1073 C   0  0  0  0  0  0  0  0  0  0  0  0
    2.4558   -5.2540   28.1142 N   0  0  0  0  0  0  0  0  0  0  0  0
  1  2  2  0
  2  3  1  0
  3  4  2  0
  4  5  1  0
  5  6  2  0
  6  7  1  0
  7  8  1  0
  8  9  1  0
  9 10  1  0
 10 11  1  0
 11 12  1  0
 12 13  1  0
 13 14  1  0
 14 15  1  0
 15 16  1  0
 17  8  1  6
 17 18  1  0
 18 19  1  0
 19 20  1  0
 20 21  1  0
 21 22  1  0
  6 23  1  0
 23 24  2  0
 24 25  1  0
 25  1  1  0
 24  3  1  0
 16 11  1  0
 22 17  1  0
M  END
>  <HIPPO Pose ID>  (21) 
2408

>  <scratch_subdir>  (21) 
/opt/xchem-fragalysis-2/maxwin/BulkDock/SCRATCH/350562/C5867-P40

>  <ref_mols>  (21) 
7gok-a,7gp2-a

>  <original SMILES>  (21) 
c1cc2ccc(CN(CCN3CCCCC3)[C@@H]3CCCNC3)cc2[nH]1

>  <HIPPO Compound ID>  (21) 
5867

>  <original ID>  (21) 
LPQRCIWRAVBOJZ-HXUWFJFHSA-N

>  <alias>  (21) 
None

>  <fragmenstein_runtime>  (21) 
5.083646

>  <score_inspiration>  (21) 
0.388665

>  <name>  (21) 
LPQRCIWRAVBOJZ-HXUWFJFHSA-N

>  <fragmenstein_mode>  (21) 
expansion

>  <fragmenstein_error>  (21) 
None

>  <fragmenstein_outcome>  (21) 
acceptable

>  <inchikey>  (21) 
LPQRCIWRAVBOJZ-HXUWFJFHSA-N

>  <tags>  (21) 
Fragmenstein placed

>  <SLURM_JOB_ID>  (21) 
350562

>  <energy_score>  (21) 
-51.442981

>  <ref_pdb>  (21) 
7gok-a

>  <distance_score>  (21) 
0.943798

>  <csv_name>  (21) 
D68EV3C_iter1_knitwork_pure_split1000_batch001.csv

$$$$
2430
     RDKit          3D

 22 25  0  0  0  0  0  0  0  0999 V2000
    0.2808   -2.5058   33.1491 O   0  0  0  0  0  0  0  0  0  0  0  0
    0.2357   -2.6849   32.0021 C   0  0  0  0  0  0  0  0  0  0  0  0
   -0.3442   -1.8104   30.8792 N   0  0  0  0  0  0  0  0  0  0  0  0
   -0.9094   -0.4808   30.9214 C   0  0  2  0  0  0  0  0  0  0  0  0
   -1.7992   -0.2667   29.6849 C   0  0  0  0  0  0  0  0  0  0  0  0
   -0.5900    0.3948   28.9765 C   0  0  1  0  0  0  0  0  0  0  0  0
   -1.0788    1.6290   28.3524 N   0  0  0  0  0  0  0  0  0  0  0  0
   -1.8059    1.2784   27.1165 C   0  0  0  0  0  0  0  0  0  0  0  0
   -2.4122    2.5130   26.4564 C   0  0  0  0  0  0  0  0  0  0  0  0
   -1.3471    3.5613   26.1709 C   0  0  0  0  0  0  0  0  0  0  0  0
   -0.5263    3.8437   27.4237 C   0  0  0  0  0  0  0  0  0  0  0  0
    0.0196    2.5534   28.0423 C   0  0  0  0  0  0  0  0  0  0  0  0
    0.0079    0.6394   30.3833 C   0  0  0  0  0  0  0  0  0  0  0  0
    0.7039   -3.9277   31.3532 C   0  0  0  0  0  0  0  0  0  0  0  0
   -0.0034   -5.1103   31.5649 C   0  0  0  0  0  0  0  0  0  0  0  0
    0.1802   -6.1812   30.6896 C   0  0  0  0  0  0  0  0  0  0  0  0
    1.0725   -6.0288   29.6090 C   0  0  0  0  0  0  0  0  0  0  0  0
    1.4569   -6.8607   28.5385 C   0  0  0  0  0  0  0  0  0  0  0  0
    2.4136   -6.2110   27.7921 C   0  0  0  0  0  0  0  0  0  0  0  0
    2.5946   -4.9754   28.3468 N   0  0  0  0  0  0  0  0  0  0  0  0
    1.7991   -4.8515   29.4616 C   0  0  0  0  0  0  0  0  0  0  0  0
    1.6556   -3.7815   30.3327 C   0  0  0  0  0  0  0  0  0  0  0  0
  1  2  2  0
  2  3  1  0
  4  3  1  6
  4  5  1  0
  5  6  1  0
  6  7  1  1
  7  8  1  0
  8  9  1  0
  9 10  1  0
 10 11  1  0
 11 12  1  0
  6 13  1  0
  2 14  1  0
 14 15  2  0
 15 16  1  0
 16 17  2  0
 17 18  1  0
 18 19  2  0
 19 20  1  0
 20 21  1  0
 21 22  2  0
 13  4  1  0
 22 14  1  0
 12  7  1  0
 21 17  1  0
M  END
>  <HIPPO Pose ID>  (22) 
2430

>  <scratch_subdir>  (22) 
/opt/xchem-fragalysis-2/maxwin/BulkDock/SCRATCH/350562/C5868-P40

>  <ref_mols>  (22) 
7gok-a,7gp2-a

>  <original SMILES>  (22) 
O=C(N[C@H]1C[C@H](N2CCCCC2)C1)c1ccc2cc[nH]c2c1

>  <HIPPO Compound ID>  (22) 
5868

>  <original ID>  (22) 
KQLYWQIIZPHKEG-WKILWMFISA-N

>  <alias>  (22) 
None

>  <fragmenstein_runtime>  (22) 
5.143575

>  <score_inspiration>  (22) 
0.468602

>  <name>  (22) 
KQLYWQIIZPHKEG-WKILWMFISA-N

>  <fragmenstein_mode>  (22) 
expansion

>  <fragmenstein_error>  (22) 
None

>  <fragmenstein_outcome>  (22) 
acceptable

>  <inchikey>  (22) 
KQLYWQIIZPHKEG-WKILWMFISA-N

>  <tags>  (22) 
Fragmenstein placed

>  <SLURM_JOB_ID>  (22) 
350562

>  <energy_score>  (22) 
-0.648362

>  <ref_pdb>  (22) 
7gok-a

>  <distance_score>  (22) 
0.763475

>  <csv_name>  (22) 
D68EV3C_iter1_knitwork_pure_split1000_batch001.csv

$$$$
2437
     RDKit          3D

 22 25  0  0  0  0  0  0  0  0999 V2000
    0.3885   -2.8017   32.9412 O   0  0  0  0  0  0  0  0  0  0  0  0
    0.3526   -2.8701   31.7814 C   0  0  0  0  0  0  0  0  0  0  0  0
   -0.2872   -1.9305   30.7472 N   0  0  0  0  0  0  0  0  0  0  0  0
   -0.9414   -0.6492   30.9175 C   0  0  2  0  0  0  0  0  0  0  0  0
   -1.8602   -0.3536   29.7188 C   0  0  0  0  0  0  0  0  0  0  0  0
   -0.6532    0.3445   29.0349 C   0  0  1  0  0  0  0  0  0  0  0  0
   -1.1505    1.5784   28.4175 N   0  0  0  0  0  0  0  0  0  0  0  0
   -1.8110    1.2274   27.1438 C   0  0  0  0  0  0  0  0  0  0  0  0
   -2.4137    2.4544   26.4661 C   0  0  0  0  0  0  0  0  0  0  0  0
   -1.3579    3.5260   26.2378 C   0  0  0  0  0  0  0  0  0  0  0  0
   -0.6056    3.8165   27.5308 C   0  0  0  0  0  0  0  0  0  0  0  0
   -0.0620    2.5340   28.1680 C   0  0  0  0  0  0  0  0  0  0  0  0
   -0.0900    0.5647   30.4614 C   0  0  0  0  0  0  0  0  0  0  0  0
    1.0152   -3.9613   31.0320 C   0  0  0  0  0  0  0  0  0  0  0  0
    0.6502   -5.2864   31.2486 C   0  0  0  0  0  0  0  0  0  0  0  0
    1.1518   -6.2770   30.3991 C   0  0  0  0  0  0  0  0  0  0  0  0
    2.0201   -5.9146   29.3381 C   0  0  0  0  0  0  0  0  0  0  0  0
    2.6513   -6.6170   28.2702 C   0  0  0  0  0  0  0  0  0  0  0  0
    3.3121   -5.7129   27.4741 C   0  0  0  0  0  0  0  0  0  0  0  0
    3.1474   -4.4790   28.0391 N   0  0  0  0  0  0  0  0  0  0  0  0
    2.3559   -4.5776   29.1600 C   0  0  0  0  0  0  0  0  0  0  0  0
    1.8996   -3.5798   30.0101 C   0  0  0  0  0  0  0  0  0  0  0  0
  1  2  2  0
  2  3  1  0
  4  3  1  6
  4  5  1  0
  5  6  1  0
  6  7  1  1
  7  8  1  0
  8  9  1  0
  9 10  1  0
 10 11  1  0
 11 12  1  0
  6 13  1  0
  2 14  1  0
 14 15  2  0
 15 16  1  0
 16 17  2  0
 17 18  1  0
 18 19  2  0
 19 20  1  0
 20 21  1  0
 21 22  2  0
 13  4  1  0
 22 14  1  0
 12  7  1  0
 21 17  1  0
M  END
>  <HIPPO Pose ID>  (23) 
2437

>  <scratch_subdir>  (23) 
/opt/xchem-fragalysis-2/maxwin/BulkDock/SCRATCH/350562/C5868-P44

>  <ref_mols>  (23) 
7gok-a,7gp2-a

>  <original SMILES>  (23) 
O=C(N[C@H]1C[C@H](N2CCCCC2)C1)c1ccc2cc[nH]c2c1

>  <HIPPO Compound ID>  (23) 
5868

>  <original ID>  (23) 
KQLYWQIIZPHKEG-WKILWMFISA-N

>  <alias>  (23) 
None

>  <fragmenstein_runtime>  (23) 
5.855931

>  <score_inspiration>  (23) 
0.359416

>  <name>  (23) 
KQLYWQIIZPHKEG-WKILWMFISA-N

>  <fragmenstein_mode>  (23) 
expansion

>  <fragmenstein_error>  (23) 
None

>  <fragmenstein_outcome>  (23) 
acceptable

>  <inchikey>  (23) 
KQLYWQIIZPHKEG-WKILWMFISA-N

>  <tags>  (23) 
Fragmenstein placed

>  <SLURM_JOB_ID>  (23) 
350562

>  <energy_score>  (23) 
-2.929796

>  <ref_pdb>  (23) 
7gp2-a

>  <distance_score>  (23) 
0.987662

>  <csv_name>  (23) 
D68EV3C_iter1_knitwork_pure_split1000_batch001.csv

$$$$
2577
     RDKit          3D

 16 16  0  0  0  0  0  0  0  0999 V2000
   -2.3719   -0.7253   32.1805 C   0  0  0  0  0  0  0  0  0  0  0  0
   -1.0904   -1.5008   32.3995 C   0  0  0  0  0  0  0  0  0  0  0  0
   -0.9510   -2.9421   31.3602 S   0  0  0  0  0  0  0  0  0  0  0  0
   -2.1209   -3.7558   31.6163 O   0  0  0  0  0  0  0  0  0  0  0  0
    0.3798   -3.4886   31.4857 O   0  0  0  0  0  0  0  0  0  0  0  0
   -1.1569   -2.3386   29.8275 N   0  0  0  0  0  0  0  0  0  0  0  0
   -0.0094   -1.9967   28.9662 C   0  0  0  0  0  0  0  0  0  0  0  0
   -0.1737   -0.6180   28.2548 C   0  0  1  0  0  0  0  0  0  0  0  0
   -1.6513   -0.2237   28.0642 C   0  0  0  0  0  0  0  0  0  0  0  0
   -1.8207    0.9591   27.1253 C   0  0  0  0  0  0  0  0  0  0  0  0
   -0.8862    2.1020   27.4810 C   0  0  0  0  0  0  0  0  0  0  0  0
    0.5447    1.6322   27.7466 C   0  0  0  0  0  0  0  0  0  0  0  0
    0.6677    0.5300   28.7135 N   0  0  0  0  0  0  0  0  0  0  0  0
    0.5892    0.9058   30.1344 C   0  0  0  0  0  0  0  0  0  0  0  0
    0.7547    2.4034   30.4781 C   0  0  0  0  0  0  0  0  0  0  0  0
    1.7477    0.2152   30.8813 C   0  0  0  0  0  0  0  0  0  0  0  0
  1  2  1  0
  2  3  1  0
  3  4  2  0
  3  5  2  0
  3  6  1  0
  6  7  1  0
  8  7  1  1
  8  9  1  0
  9 10  1  0
 10 11  1  0
 11 12  1  0
 12 13  1  0
 13 14  1  0
 14 15  1  0
 14 16  1  0
 13  8  1  0
M  END
>  <HIPPO Pose ID>  (24) 
2577

>  <scratch_subdir>  (24) 
/opt/xchem-fragalysis-2/maxwin/BulkDock/SCRATCH/350561/C4567-P13

>  <ref_mols>  (24) 
7gp9-a,7gpm-a

>  <original SMILES>  (24) 
CCS(=O)(=O)NC[C@H]1CCCCN1C(C)C

>  <HIPPO Compound ID>  (24) 
4567

>  <original ID>  (24) 
NFFARXODXGBVGB-LLVKDONJSA-N

>  <alias>  (24) 
None

>  <fragmenstein_runtime>  (24) 
2.226839

>  <score_inspiration>  (24) 
0.578144

>  <name>  (24) 
NFFARXODXGBVGB-LLVKDONJSA-N

>  <fragmenstein_mode>  (24) 
expansion

>  <fragmenstein_error>  (24) 
None

>  <fragmenstein_outcome>  (24) 
acceptable

>  <inchikey>  (24) 
NFFARXODXGBVGB-LLVKDONJSA-N

>  <tags>  (24) 
Fragmenstein placed

>  <SLURM_JOB_ID>  (24) 
350561

>  <energy_score>  (24) 
-83.50887

>  <ref_pdb>  (24) 
7gp9-a

>  <distance_score>  (24) 
0.92528

>  <csv_name>  (24) 
D68EV3C_iter1_knitwork_pure_split1000_batch000.csv

$$$$
2581
     RDKit          3D

 16 16  0  0  0  0  0  0  0  0999 V2000
   -2.3278   -0.6800   32.1508 C   0  0  0  0  0  0  0  0  0  0  0  0
   -1.0818   -1.5184   32.3473 C   0  0  0  0  0  0  0  0  0  0  0  0
   -1.0112   -2.9511   31.2850 S   0  0  0  0  0  0  0  0  0  0  0  0
   -2.2344   -3.6992   31.4924 O   0  0  0  0  0  0  0  0  0  0  0  0
    0.2796   -3.5865   31.4182 O   0  0  0  0  0  0  0  0  0  0  0  0
   -1.1515   -2.3231   29.7543 N   0  0  0  0  0  0  0  0  0  0  0  0
    0.0265   -1.9637   28.9400 C   0  0  0  0  0  0  0  0  0  0  0  0
   -0.1177   -0.5671   28.2528 C   0  0  1  0  0  0  0  0  0  0  0  0
   -1.5901   -0.1376   28.0846 C   0  0  0  0  0  0  0  0  0  0  0  0
   -1.7560    1.0817   27.1917 C   0  0  0  0  0  0  0  0  0  0  0  0
   -0.7889    2.1920   27.5571 C   0  0  0  0  0  0  0  0  0  0  0  0
    0.6350    1.6793   27.7746 C   0  0  0  0  0  0  0  0  0  0  0  0
    0.7406    0.5595   28.7249 N   0  0  0  0  0  0  0  0  0  0  0  0
    0.6771    0.9161   30.1531 C   0  0  0  0  0  0  0  0  0  0  0  0
    0.8875    2.4036   30.5179 C   0  0  0  0  0  0  0  0  0  0  0  0
    1.8170    0.1852   30.8909 C   0  0  0  0  0  0  0  0  0  0  0  0
  1  2  1  0
  2  3  1  0
  3  4  2  0
  3  5  2  0
  3  6  1  0
  6  7  1  0
  8  7  1  1
  8  9  1  0
  9 10  1  0
 10 11  1  0
 11 12  1  0
 12 13  1  0
 13 14  1  0
 14 15  1  0
 14 16  1  0
 13  8  1  0
M  END
>  <HIPPO Pose ID>  (25) 
2581

>  <scratch_subdir>  (25) 
/opt/xchem-fragalysis-2/maxwin/BulkDock/SCRATCH/350561/C4567-P70

>  <ref_mols>  (25) 
7gp9-a,7gpm-a

>  <original SMILES>  (25) 
CCS(=O)(=O)NC[C@H]1CCCCN1C(C)C

>  <HIPPO Compound ID>  (25) 
4567

>  <original ID>  (25) 
NFFARXODXGBVGB-LLVKDONJSA-N

>  <alias>  (25) 
None

>  <fragmenstein_runtime>  (25) 
2.123941

>  <score_inspiration>  (25) 
0.566534

>  <name>  (25) 
NFFARXODXGBVGB-LLVKDONJSA-N

>  <fragmenstein_mode>  (25) 
expansion

>  <fragmenstein_error>  (25) 
None

>  <fragmenstein_outcome>  (25) 
acceptable

>  <inchikey>  (25) 
NFFARXODXGBVGB-LLVKDONJSA-N

>  <tags>  (25) 
Fragmenstein placed

>  <SLURM_JOB_ID>  (25) 
350561

>  <energy_score>  (25) 
-83.025159

>  <ref_pdb>  (25) 
7gpm-a

>  <distance_score>  (25) 
0.974341

>  <csv_name>  (25) 
D68EV3C_iter1_knitwork_pure_split1000_batch000.csv

$$$$
2616
     RDKit          3D

 23 25  0  0  0  0  0  0  0  0999 V2000
   -5.4386   -0.5525   33.5238 C   0  0  0  0  0  0  0  0  0  0  0  0
   -4.5442   -0.3281   34.7627 C   0  0  0  0  0  0  0  0  0  0  0  0
   -4.0951    1.1538   34.8036 C   0  0  0  0  0  0  0  0  0  0  0  0
   -3.2646   -1.2356   34.5667 C   0  0  0  0  0  0  0  0  0  0  0  0
   -2.4736   -0.9247   33.3798 N   0  0  0  0  0  0  0  0  0  0  0  0
   -2.5027   -1.5452   31.9602 C   0  0  0  0  0  0  0  0  0  0  0  0
   -3.1095   -2.4521   31.5428 O   0  0  0  0  0  0  0  0  0  0  0  0
   -1.6606   -0.7141   31.0651 C   0  0  0  0  0  0  0  0  0  0  0  0
   -1.7854   -0.4980   29.6570 C   0  0  0  0  0  0  0  0  0  0  0  0
   -1.0122    0.6167   29.4108 C   0  0  0  0  0  0  0  0  0  0  0  0
   -1.0160    1.5922   28.1957 C   0  0  0  0  0  0  0  0  0  0  0  0
   -0.2597    2.7905   28.1161 C   0  0  0  0  0  0  0  0  0  0  0  0
   -0.6605    3.4208   26.9624 C   0  0  0  0  0  0  0  0  0  0  0  0
   -1.5802    2.6688   26.3076 O   0  0  0  0  0  0  0  0  0  0  0  0
   -1.8006    1.5606   27.0656 C   0  0  0  0  0  0  0  0  0  0  0  0
   -0.2726    0.8694   30.5316 O   0  0  0  0  0  0  0  0  0  0  0  0
   -0.7159    0.0917   31.5792 N   0  0  0  0  0  0  0  0  0  0  0  0
   -5.2889   -0.6947   36.0202 N   0  0  0  0  0  0  0  0  0  0  0  0
   -6.7024   -0.2473   36.0323 C   0  0  0  0  0  0  0  0  0  0  0  0
   -7.2984    0.0146   37.4231 C   0  0  0  0  0  0  0  0  0  0  0  0
   -6.7709   -0.9652   38.4536 C   0  0  0  0  0  0  0  0  0  0  0  0
   -5.2453   -0.9419   38.5015 C   0  0  0  0  0  0  0  0  0  0  0  0
   -4.6040   -0.3074   37.2635 C   0  0  0  0  0  0  0  0  0  0  0  0
  1  2  1  0
  2  3  1  0
  2  4  1  0
  4  5  1  0
  5  6  1  0
  6  7  2  0
  6  8  1  0
  8  9  1  0
  9 10  2  0
 10 11  1  0
 11 12  1  0
 12 13  2  0
 13 14  1  0
 14 15  1  0
 10 16  1  0
 16 17  1  0
  2 18  1  0
 18 19  1  0
 19 20  1  0
 20 21  1  0
 21 22  1  0
 22 23  1  0
 17  8  2  0
 23 18  1  0
 15 11  2  0
M  END
>  <HIPPO Pose ID>  (26) 
2616

>  <scratch_subdir>  (26) 
/opt/xchem-fragalysis-2/maxwin/BulkDock/SCRATCH/350564/C3209-P59

>  <ref_mols>  (26) 
7gp2-a,7goy-a

>  <original SMILES>  (26) 
CC(C)(CNC(=O)c1cc(-c2ccoc2)on1)N1CCCCC1

>  <HIPPO Compound ID>  (26) 
3209

>  <original ID>  (26) 
SSIWEIZBDUFKPB-UHFFFAOYSA-N

>  <alias>  (26) 
None

>  <fragmenstein_runtime>  (26) 
5.856484

>  <score_inspiration>  (26) 
0.50851

>  <name>  (26) 
SSIWEIZBDUFKPB-UHFFFAOYSA-N

>  <fragmenstein_mode>  (26) 
expansion

>  <fragmenstein_error>  (26) 
None

>  <fragmenstein_outcome>  (26) 
acceptable

>  <inchikey>  (26) 
SSIWEIZBDUFKPB-UHFFFAOYSA-N

>  <tags>  (26) 
Fragmenstein placed

>  <SLURM_JOB_ID>  (26) 
350564

>  <energy_score>  (26) 
-27.489736

>  <ref_pdb>  (26) 
7goy-a

>  <distance_score>  (26) 
0.979149

>  <csv_name>  (26) 
D68EV3C_iter1_knitwork_pure_split1000_batch003.csv

$$$$
2628
     RDKit          3D

 22 24  0  0  0  0  0  0  0  0999 V2000
    0.7740   -0.1988   28.3294 C   0  0  0  0  0  0  0  0  0  0  0  0
   -0.2050    0.5902   29.2155 C   0  0  2  0  0  0  0  0  0  0  0  0
   -1.0405   -0.3469   30.1276 C   0  0  0  0  0  0  0  0  0  0  0  0
   -0.1671   -1.3345   30.7006 O   0  0  0  0  0  0  0  0  0  0  0  0
   -0.7980   -2.4417   31.1547 C   0  0  0  0  0  0  0  0  0  0  0  0
   -1.8945   -2.4835   31.6879 O   0  0  0  0  0  0  0  0  0  0  0  0
    0.0047   -3.6477   30.8119 C   0  0  0  0  0  0  0  0  0  0  0  0
   -0.4467   -4.8978   31.2424 C   0  0  0  0  0  0  0  0  0  0  0  0
   -0.0005   -6.0665   30.6193 C   0  0  0  0  0  0  0  0  0  0  0  0
    0.9234   -5.9550   29.5662 C   0  0  0  0  0  0  0  0  0  0  0  0
    1.4315   -6.8641   28.6175 C   0  0  0  0  0  0  0  0  0  0  0  0
    2.3803   -6.2225   27.8545 C   0  0  0  0  0  0  0  0  0  0  0  0
    2.4066   -4.9149   28.2545 N   0  0  0  0  0  0  0  0  0  0  0  0
    3.2695   -3.8951   27.6974 C   0  0  0  0  0  0  0  0  0  0  0  0
    1.4823   -4.7191   29.2574 C   0  0  0  0  0  0  0  0  0  0  0  0
    1.0550   -3.5515   29.8880 C   0  0  0  0  0  0  0  0  0  0  0  0
   -1.0569    1.5415   28.4678 N   0  0  0  0  0  0  0  0  0  0  0  0
   -0.3233    2.7712   28.1175 C   0  0  0  0  0  0  0  0  0  0  0  0
   -1.2216    3.8061   27.4391 C   0  0  0  0  0  0  0  0  0  0  0  0
   -1.8945    3.2240   26.2062 C   0  0  0  0  0  0  0  0  0  0  0  0
   -2.6280    1.9454   26.5796 C   0  0  0  0  0  0  0  0  0  0  0  0
   -1.7068    0.9518   27.2865 C   0  0  0  0  0  0  0  0  0  0  0  0
  2  1  1  6
  2  3  1  0
  3  4  1  0
  4  5  1  0
  5  6  2  0
  5  7  1  0
  7  8  2  0
  8  9  1  0
  9 10  2  0
 10 11  1  0
 11 12  2  0
 12 13  1  0
 13 14  1  0
 13 15  1  0
 15 16  2  0
  2 17  1  0
 17 18  1  0
 18 19  1  0
 19 20  1  0
 20 21  1  0
 21 22  1  0
 16  7  1  0
 22 17  1  0
 15 10  1  0
M  END
>  <HIPPO Pose ID>  (27) 
2628

>  <scratch_subdir>  (27) 
/opt/xchem-fragalysis-2/maxwin/BulkDock/SCRATCH/350562/C5906-P40

>  <ref_mols>  (27) 
7gok-a,7gp2-a

>  <original SMILES>  (27) 
C[C@H](COC(=O)c1ccc2ccn(C)c2c1)N1CCCCC1

>  <HIPPO Compound ID>  (27) 
5906

>  <original ID>  (27) 
QLLFKTQWEOSFEX-CQSZACIVSA-N

>  <alias>  (27) 
None

>  <fragmenstein_runtime>  (27) 
6.166514

>  <score_inspiration>  (27) 
0.502008

>  <name>  (27) 
QLLFKTQWEOSFEX-CQSZACIVSA-N

>  <fragmenstein_mode>  (27) 
expansion

>  <fragmenstein_error>  (27) 
None

>  <fragmenstein_outcome>  (27) 
acceptable

>  <inchikey>  (27) 
QLLFKTQWEOSFEX-CQSZACIVSA-N

>  <tags>  (27) 
Fragmenstein placed

>  <SLURM_JOB_ID>  (27) 
350562

>  <energy_score>  (27) 
-40.165937

>  <ref_pdb>  (27) 
7gok-a

>  <distance_score>  (27) 
0.760255

>  <csv_name>  (27) 
D68EV3C_iter1_knitwork_pure_split1000_batch001.csv

$$$$
2664
     RDKit          3D

 24 26  0  0  0  0  0  0  0  0999 V2000
    0.5877    0.8322   30.3200 C   0  0  0  0  0  0  0  0  0  0  0  0
   -0.5692    0.4608   29.3788 C   0  0  1  0  0  0  0  0  0  0  0  0
   -1.7548   -0.0225   30.2569 C   0  0  0  0  0  0  0  0  0  0  0  0
   -1.6040   -1.3724   30.6849 N   0  0  0  0  0  0  0  0  0  0  0  0
   -1.4802   -1.9647   32.1021 C   0  0  0  0  0  0  0  0  0  0  0  0
   -1.5588   -1.4531   33.1402 O   0  0  0  0  0  0  0  0  0  0  0  0
   -1.1047   -3.4507   31.8632 C   0  0  0  0  0  0  0  0  0  0  0  0
   -1.6807   -4.3667   32.2742 O   0  0  0  0  0  0  0  0  0  0  0  0
    0.0919   -3.3761   30.9107 N   0  0  0  0  0  0  0  0  0  0  0  0
    0.7442   -4.3663   30.2187 C   0  0  0  0  0  0  0  0  0  0  0  0
    0.3711   -5.7027   30.2912 C   0  0  0  0  0  0  0  0  0  0  0  0
    0.9447   -6.6260   29.4129 C   0  0  0  0  0  0  0  0  0  0  0  0
    1.9134   -6.1858   28.4840 C   0  0  0  0  0  0  0  0  0  0  0  0
    2.7091   -6.8018   27.4823 C   0  0  0  0  0  0  0  0  0  0  0  0
    3.4107   -5.8258   26.8167 C   0  0  0  0  0  0  0  0  0  0  0  0
    3.1443   -4.6381   27.4286 N   0  0  0  0  0  0  0  0  0  0  0  0
    2.2448   -4.8349   28.4473 C   0  0  0  0  0  0  0  0  0  0  0  0
    1.6993   -3.9045   29.3159 C   0  0  0  0  0  0  0  0  0  0  0  0
   -1.0538    1.5494   28.5076 N   0  0  0  0  0  0  0  0  0  0  0  0
   -1.6714    1.0119   27.2806 C   0  0  0  0  0  0  0  0  0  0  0  0
   -2.4122    2.0996   26.5066 C   0  0  0  0  0  0  0  0  0  0  0  0
   -1.4947    3.2659   26.1723 C   0  0  0  0  0  0  0  0  0  0  0  0
   -0.7911    3.7591   27.4278 C   0  0  0  0  0  0  0  0  0  0  0  0
   -0.1024    2.6162   28.1816 C   0  0  0  0  0  0  0  0  0  0  0  0
  2  1  1  1
  2  3  1  0
  3  4  1  0
  4  5  1  0
  5  6  2  0
  5  7  1  0
  7  8  2  0
  7  9  1  0
  9 10  1  0
 10 11  2  0
 11 12  1  0
 12 13  2  0
 13 14  1  0
 14 15  2  0
 15 16  1  0
 16 17  1  0
 17 18  2  0
  2 19  1  0
 19 20  1  0
 20 21  1  0
 21 22  1  0
 22 23  1  0
 23 24  1  0
 18 10  1  0
 24 19  1  0
 17 13  1  0
M  END
>  <HIPPO Pose ID>  (28) 
2664

>  <scratch_subdir>  (28) 
/opt/xchem-fragalysis-2/maxwin/BulkDock/SCRATCH/350562/C5911-P40

>  <ref_mols>  (28) 
7gok-a,7gp2-a

>  <original SMILES>  (28) 
C[C@@H](CNC(=O)C(=O)Nc1ccc2cc[nH]c2c1)N1CCCCC1

>  <HIPPO Compound ID>  (28) 
5911

>  <original ID>  (28) 
CSNUJKFAWOWXAL-ZDUSSCGKSA-N

>  <alias>  (28) 
None

>  <fragmenstein_runtime>  (28) 
8.72911

>  <score_inspiration>  (28) 
0.369545

>  <name>  (28) 
CSNUJKFAWOWXAL-ZDUSSCGKSA-N

>  <fragmenstein_mode>  (28) 
expansion

>  <fragmenstein_error>  (28) 
None

>  <fragmenstein_outcome>  (28) 
acceptable

>  <inchikey>  (28) 
CSNUJKFAWOWXAL-ZDUSSCGKSA-N

>  <tags>  (28) 
Fragmenstein placed

>  <SLURM_JOB_ID>  (28) 
350562

>  <energy_score>  (28) 
-4.286732

>  <ref_pdb>  (28) 
7gok-a

>  <distance_score>  (28) 
0.997131

>  <csv_name>  (28) 
D68EV3C_iter1_knitwork_pure_split1000_batch001.csv

$$$$
2672
     RDKit          3D

 17 18  0  0  0  0  0  0  0  0999 V2000
   -1.8421    1.8154   27.2429 C   0  0  0  0  0  0  0  0  0  0  0  0
   -1.8431    0.2960   27.2062 C   0  0  0  0  0  0  0  0  0  0  0  0
   -0.5816   -0.3379   27.7859 C   0  0  0  0  0  0  0  0  0  0  0  0
   -0.5345   -0.1982   29.2820 C   0  0  0  0  0  0  0  0  0  0  0  0
    0.3213    0.7362   29.8694 C   0  0  0  0  0  0  0  0  0  0  0  0
    0.3226    0.9064   31.2475 C   0  0  0  0  0  0  0  0  0  0  0  0
   -0.5281    0.1452   32.0457 C   0  0  0  0  0  0  0  0  0  0  0  0
   -1.3886   -0.8017   31.4758 C   0  0  0  0  0  0  0  0  0  0  0  0
   -2.2825   -1.6241   32.3597 C   0  0  0  0  0  0  0  0  0  0  0  0
   -3.3405   -0.8025   32.9581 N   0  0  0  0  0  0  0  0  0  0  0  0
   -4.0617   -1.6221   33.9300 C   0  0  0  0  0  0  0  0  0  0  0  0
   -5.2632   -0.9502   34.4630 C   0  0  0  0  0  0  0  0  0  0  0  0
   -5.5579   -0.2633   35.6145 C   0  0  0  0  0  0  0  0  0  0  0  0
   -6.9440   -0.0426   35.5302 C   0  0  0  0  0  0  0  0  0  0  0  0
   -7.4682   -0.5742   34.4260 N   0  0  0  0  0  0  0  0  0  0  0  0
   -6.3940   -1.0804   33.7190 O   0  0  0  0  0  0  0  0  0  0  0  0
   -1.3861   -0.9685   30.0882 C   0  0  0  0  0  0  0  0  0  0  0  0
  1  2  1  0
  2  3  1  0
  3  4  1  0
  4  5  2  0
  5  6  1  0
  6  7  2  0
  7  8  1  0
  8  9  1  0
  9 10  1  0
 10 11  1  0
 11 12  1  0
 12 13  2  0
 13 14  1  0
 14 15  2  0
 15 16  1  0
  8 17  2  0
 17  4  1  0
 16 12  1  0
M  END
>  <HIPPO Pose ID>  (29) 
2672

>  <scratch_subdir>  (29) 
/opt/xchem-fragalysis-2/maxwin/BulkDock/SCRATCH/350565/C1607-P59

>  <ref_mols>  (29) 
7goy-a,7gpm-a

>  <original SMILES>  (29) 
CCCc1cccc(CNCc2ccno2)c1

>  <HIPPO Compound ID>  (29) 
1607

>  <original ID>  (29) 
JFDSBNYGCGJYJN-UHFFFAOYSA-N

>  <alias>  (29) 
None

>  <fragmenstein_runtime>  (29) 
1.556746

>  <score_inspiration>  (29) 
0.445763

>  <name>  (29) 
JFDSBNYGCGJYJN-UHFFFAOYSA-N

>  <fragmenstein_mode>  (29) 
expansion

>  <fragmenstein_error>  (29) 
None

>  <fragmenstein_outcome>  (29) 
acceptable

>  <inchikey>  (29) 
JFDSBNYGCGJYJN-UHFFFAOYSA-N

>  <tags>  (29) 
Fragmenstein placed

>  <SLURM_JOB_ID>  (29) 
350565

>  <energy_score>  (29) 
-25.931828

>  <ref_pdb>  (29) 
7goy-a

>  <distance_score>  (29) 
0.937054

>  <csv_name>  (29) 
D68EV3C_iter1_knitwork_pure_split1000_batch004.csv

$$$$
2738
     RDKit          3D

 24 25  0  0  0  0  0  0  0  0999 V2000
   -9.4011   -0.2527   38.6683 C   0  0  0  0  0  0  0  0  0  0  0  0
   -8.2097   -1.1088   37.6677 S   0  0  0  0  0  0  0  0  0  0  0  0
   -6.9412   -1.0713   38.3672 O   0  0  0  0  0  0  0  0  0  0  0  0
   -8.7961   -2.3751   37.2687 O   0  0  0  0  0  0  0  0  0  0  0  0
   -8.0863   -0.0790   36.2199 C   0  0  0  0  0  0  0  0  0  0  0  0
   -7.2477   -0.7048   35.1117 C   0  0  0  0  0  0  0  0  0  0  0  0
   -5.7564   -0.7880   35.4434 C   0  0  0  0  0  0  0  0  0  0  0  0
   -4.9355   -1.0362   34.1810 C   0  0  0  0  0  0  0  0  0  0  0  0
   -3.4423   -1.1394   34.4807 C   0  0  0  0  0  0  0  0  0  0  0  0
   -2.6845   -0.9443   33.2742 N   0  0  0  0  0  0  0  0  0  0  0  0
   -2.4790   -1.8709   32.0599 C   0  0  0  0  0  0  0  0  0  0  0  0
   -2.9533   -2.9076   31.8106 O   0  0  0  0  0  0  0  0  0  0  0  0
   -1.5987   -1.1819   31.1055 C   0  0  0  0  0  0  0  0  0  0  0  0
   -1.5154   -1.3841   29.7074 C   0  0  0  0  0  0  0  0  0  0  0  0
   -0.7701   -0.3221   29.2583 C   0  0  0  0  0  0  0  0  0  0  0  0
   -0.4853    0.2238   27.9059 C   0  0  0  0  0  0  0  0  0  0  0  0
   -1.0242    1.5909   27.7780 N   0  0  0  0  0  0  0  0  0  0  0  0
   -1.4641    1.9005   26.4220 C   0  0  0  0  0  0  0  0  0  0  0  0
   -2.2570    3.2070   26.3709 C   0  0  0  0  0  0  0  0  0  0  0  0
   -1.6053    4.3104   27.1933 C   0  0  0  0  0  0  0  0  0  0  0  0
   -0.1826    3.9672   27.5945 C   0  0  0  0  0  0  0  0  0  0  0  0
   -0.0971    2.6104   28.3021 C   0  0  0  0  0  0  0  0  0  0  0  0
   -0.2887    0.3676   30.3264 O   0  0  0  0  0  0  0  0  0  0  0  0
   -0.8315   -0.1442   31.4889 N   0  0  0  0  0  0  0  0  0  0  0  0
  1  2  1  0
  2  3  2  0
  2  4  2  0
  2  5  1  0
  5  6  1  0
  6  7  1  0
  7  8  1  0
  8  9  1  0
  9 10  1  0
 10 11  1  0
 11 12  2  0
 11 13  1  0
 13 14  1  0
 14 15  2  0
 15 16  1  0
 16 17  1  0
 17 18  1  0
 18 19  1  0
 19 20  1  0
 20 21  1  0
 21 22  1  0
 15 23  1  0
 23 24  1  0
 24 13  2  0
 22 17  1  0
M  END
>  <HIPPO Pose ID>  (30) 
2738

>  <scratch_subdir>  (30) 
/opt/xchem-fragalysis-2/maxwin/BulkDock/SCRATCH/350564/C3233-P44

>  <ref_mols>  (30) 
7gp2-a,7goy-a

>  <original SMILES>  (30) 
CS(=O)(=O)CCCCCNC(=O)c1cc(CN2CCCCC2)on1

>  <HIPPO Compound ID>  (30) 
3233

>  <original ID>  (30) 
AQKDVGWHSYNMMI-UHFFFAOYSA-N

>  <alias>  (30) 
None

>  <fragmenstein_runtime>  (30) 
2.682467

>  <score_inspiration>  (30) 
0.488373

>  <name>  (30) 
AQKDVGWHSYNMMI-UHFFFAOYSA-N

>  <fragmenstein_mode>  (30) 
expansion

>  <fragmenstein_error>  (30) 
None

>  <fragmenstein_outcome>  (30) 
acceptable

>  <inchikey>  (30) 
AQKDVGWHSYNMMI-UHFFFAOYSA-N

>  <tags>  (30) 
Fragmenstein placed

>  <SLURM_JOB_ID>  (30) 
350564

>  <energy_score>  (30) 
-30.802159

>  <ref_pdb>  (30) 
7gp2-a

>  <distance_score>  (30) 
0.98314

>  <csv_name>  (30) 
D68EV3C_iter1_knitwork_pure_split1000_batch003.csv

$$$$
2907
     RDKit          3D

 12 13  0  0  0  0  0  0  0  0999 V2000
   -1.4061   -1.9245   28.7289 C   0  0  0  0  0  0  0  0  0  0  0  0
   -1.0383   -0.8461   29.6608 C   0  0  0  0  0  0  0  0  0  0  0  0
   -0.8632   -1.2439   30.9527 O   0  0  0  0  0  0  0  0  0  0  0  0
   -0.3926   -0.1861   31.7060 N   0  0  0  0  0  0  0  0  0  0  0  0
   -0.2866    0.8271   30.8440 C   0  0  0  0  0  0  0  0  0  0  0  0
   -0.7671    0.5023   29.5506 C   0  0  0  0  0  0  0  0  0  0  0  0
   -0.9368    1.3547   28.4888 N   0  0  0  0  0  0  0  0  0  0  0  0
   -1.5931    0.9085   27.2515 C   0  0  0  0  0  0  0  0  0  0  0  0
   -2.3221    2.0587   26.5595 C   0  0  0  0  0  0  0  0  0  0  0  0
   -1.4116    3.2550   26.3365 C   0  0  0  0  0  0  0  0  0  0  0  0
   -0.7917    3.6810   27.6586 C   0  0  0  0  0  0  0  0  0  0  0  0
   -0.0534    2.5222   28.3260 C   0  0  0  0  0  0  0  0  0  0  0  0
  1  2  1  0
  2  3  1  0
  3  4  1  0
  4  5  2  0
  5  6  1  0
  6  7  1  0
  7  8  1  0
  8  9  1  0
  9 10  1  0
 10 11  1  0
 11 12  1  0
  6  2  2  0
 12  7  1  0
M  END
>  <HIPPO Pose ID>  (31) 
2907

>  <scratch_subdir>  (31) 
/opt/xchem-fragalysis-2/maxwin/BulkDock/SCRATCH/350564/C3249-P44

>  <ref_mols>  (31) 
7gp2-a,7goy-a

>  <original SMILES>  (31) 
Cc1oncc1N1CCCCC1

>  <HIPPO Compound ID>  (31) 
3249

>  <original ID>  (31) 
CDPZJWVROYWSGB-UHFFFAOYSA-N

>  <alias>  (31) 
None

>  <fragmenstein_runtime>  (31) 
1.351014

>  <score_inspiration>  (31) 
0.705677

>  <name>  (31) 
CDPZJWVROYWSGB-UHFFFAOYSA-N

>  <fragmenstein_mode>  (31) 
expansion

>  <fragmenstein_error>  (31) 
None

>  <fragmenstein_outcome>  (31) 
acceptable

>  <inchikey>  (31) 
CDPZJWVROYWSGB-UHFFFAOYSA-N

>  <tags>  (31) 
Fragmenstein placed

>  <SLURM_JOB_ID>  (31) 
350564

>  <energy_score>  (31) 
-32.44582

>  <ref_pdb>  (31) 
7gp2-a

>  <distance_score>  (31) 
0.730364

>  <csv_name>  (31) 
D68EV3C_iter1_knitwork_pure_split1000_batch003.csv

$$$$
2908
     RDKit          3D

 12 13  0  0  0  0  0  0  0  0999 V2000
   -1.5366   -1.9049   28.7695 C   0  0  0  0  0  0  0  0  0  0  0  0
   -1.0820   -0.8330   29.6690 C   0  0  0  0  0  0  0  0  0  0  0  0
   -0.8719   -1.2205   30.9585 O   0  0  0  0  0  0  0  0  0  0  0  0
   -0.3430   -0.1683   31.6804 N   0  0  0  0  0  0  0  0  0  0  0  0
   -0.2373    0.8312   30.8020 C   0  0  0  0  0  0  0  0  0  0  0  0
   -0.7689    0.5031   29.5295 C   0  0  0  0  0  0  0  0  0  0  0  0
   -0.9522    1.3456   28.4621 N   0  0  0  0  0  0  0  0  0  0  0  0
   -1.6646    0.9005   27.2549 C   0  0  0  0  0  0  0  0  0  0  0  0
   -2.3776    2.0610   26.5634 C   0  0  0  0  0  0  0  0  0  0  0  0
   -1.4415    3.2285   26.2976 C   0  0  0  0  0  0  0  0  0  0  0  0
   -0.7731    3.6558   27.5954 C   0  0  0  0  0  0  0  0  0  0  0  0
   -0.0446    2.4867   28.2549 C   0  0  0  0  0  0  0  0  0  0  0  0
  1  2  1  0
  2  3  1  0
  3  4  1  0
  4  5  2  0
  5  6  1  0
  6  7  1  0
  7  8  1  0
  8  9  1  0
  9 10  1  0
 10 11  1  0
 11 12  1  0
  6  2  2  0
 12  7  1  0
M  END
>  <HIPPO Pose ID>  (32) 
2908

>  <scratch_subdir>  (32) 
/opt/xchem-fragalysis-2/maxwin/BulkDock/SCRATCH/350564/C3249-P59

>  <ref_mols>  (32) 
7gp2-a,7goy-a

>  <original SMILES>  (32) 
Cc1oncc1N1CCCCC1

>  <HIPPO Compound ID>  (32) 
3249

>  <original ID>  (32) 
CDPZJWVROYWSGB-UHFFFAOYSA-N

>  <alias>  (32) 
None

>  <fragmenstein_runtime>  (32) 
1.32458

>  <score_inspiration>  (32) 
0.699452

>  <name>  (32) 
CDPZJWVROYWSGB-UHFFFAOYSA-N

>  <fragmenstein_mode>  (32) 
expansion

>  <fragmenstein_error>  (32) 
None

>  <fragmenstein_outcome>  (32) 
acceptable

>  <inchikey>  (32) 
CDPZJWVROYWSGB-UHFFFAOYSA-N

>  <tags>  (32) 
Fragmenstein placed

>  <SLURM_JOB_ID>  (32) 
350564

>  <energy_score>  (32) 
-32.651437

>  <ref_pdb>  (32) 
7goy-a

>  <distance_score>  (32) 
0.730207

>  <csv_name>  (32) 
D68EV3C_iter1_knitwork_pure_split1000_batch003.csv

$$$$
2911
     RDKit          3D

 12 13  0  0  0  0  0  0  0  0999 V2000
   -1.9083   -1.6052   31.1395 C   0  0  0  0  0  0  0  0  0  0  0  0
   -1.4563   -1.4911   29.8124 C   0  0  0  0  0  0  0  0  0  0  0  0
   -0.7467   -0.3150   29.8075 C   0  0  0  0  0  0  0  0  0  0  0  0
   -0.0302    0.4745   28.7855 C   0  0  0  0  0  0  0  0  0  0  0  0
   -0.8905    1.5372   28.2428 N   0  0  0  0  0  0  0  0  0  0  0  0
   -1.7516    1.0174   27.1707 C   0  0  0  0  0  0  0  0  0  0  0  0
   -2.6493    2.0974   26.5710 C   0  0  0  0  0  0  0  0  0  0  0  0
   -1.8466    3.3035   26.1079 C   0  0  0  0  0  0  0  0  0  0  0  0
   -0.9637    3.8044   27.2420 C   0  0  0  0  0  0  0  0  0  0  0  0
   -0.0873    2.6779   27.7886 C   0  0  0  0  0  0  0  0  0  0  0  0
   -0.7651    0.2256   31.0571 O   0  0  0  0  0  0  0  0  0  0  0  0
   -1.5081   -0.5825   31.8994 N   0  0  0  0  0  0  0  0  0  0  0  0
  1  2  1  0
  2  3  2  0
  3  4  1  0
  4  5  1  0
  5  6  1  0
  6  7  1  0
  7  8  1  0
  8  9  1  0
  9 10  1  0
  3 11  1  0
 11 12  1  0
 12  1  2  0
 10  5  1  0
M  END
>  <HIPPO Pose ID>  (33) 
2911

>  <scratch_subdir>  (33) 
/opt/xchem-fragalysis-2/maxwin/BulkDock/SCRATCH/350564/C3250-P44

>  <ref_mols>  (33) 
7gp2-a,7goy-a

>  <original SMILES>  (33) 
c1cc(CN2CCCCC2)on1

>  <HIPPO Compound ID>  (33) 
3250

>  <original ID>  (33) 
JYOLCCCEPYDXKP-UHFFFAOYSA-N

>  <alias>  (33) 
None

>  <fragmenstein_runtime>  (33) 
0.817396

>  <score_inspiration>  (33) 
0.602012

>  <name>  (33) 
JYOLCCCEPYDXKP-UHFFFAOYSA-N

>  <fragmenstein_mode>  (33) 
expansion

>  <fragmenstein_error>  (33) 
None

>  <fragmenstein_outcome>  (33) 
acceptable

>  <inchikey>  (33) 
JYOLCCCEPYDXKP-UHFFFAOYSA-N

>  <tags>  (33) 
Fragmenstein placed

>  <SLURM_JOB_ID>  (33) 
350564

>  <energy_score>  (33) 
-31.955777

>  <ref_pdb>  (33) 
7gp2-a

>  <distance_score>  (33) 
0.990449

>  <csv_name>  (33) 
D68EV3C_iter1_knitwork_pure_split1000_batch003.csv

$$$$
2914
     RDKit          3D

 12 13  0  0  0  0  0  0  0  0999 V2000
   -1.9629   -1.5857   31.1394 C   0  0  0  0  0  0  0  0  0  0  0  0
   -1.5472   -1.4846   29.7998 C   0  0  0  0  0  0  0  0  0  0  0  0
   -0.7929   -0.3367   29.7760 C   0  0  0  0  0  0  0  0  0  0  0  0
   -0.0802    0.4275   28.7321 C   0  0  0  0  0  0  0  0  0  0  0  0
   -0.9224    1.5115   28.2025 N   0  0  0  0  0  0  0  0  0  0  0  0
   -1.8379    1.0082   27.1669 C   0  0  0  0  0  0  0  0  0  0  0  0
   -2.7098    2.1122   26.5717 C   0  0  0  0  0  0  0  0  0  0  0  0
   -1.8754    3.2792   26.0666 C   0  0  0  0  0  0  0  0  0  0  0  0
   -0.9471    3.7663   27.1701 C   0  0  0  0  0  0  0  0  0  0  0  0
   -0.0951    2.6178   27.7089 C   0  0  0  0  0  0  0  0  0  0  0  0
   -0.7516    0.1995   31.0269 O   0  0  0  0  0  0  0  0  0  0  0  0
   -1.4997   -0.5827   31.8896 N   0  0  0  0  0  0  0  0  0  0  0  0
  1  2  1  0
  2  3  2  0
  3  4  1  0
  4  5  1  0
  5  6  1  0
  6  7  1  0
  7  8  1  0
  8  9  1  0
  9 10  1  0
  3 11  1  0
 11 12  1  0
 12  1  2  0
 10  5  1  0
M  END
>  <HIPPO Pose ID>  (34) 
2914

>  <scratch_subdir>  (34) 
/opt/xchem-fragalysis-2/maxwin/BulkDock/SCRATCH/350564/C3250-P59

>  <ref_mols>  (34) 
7gp2-a,7goy-a

>  <original SMILES>  (34) 
c1cc(CN2CCCCC2)on1

>  <HIPPO Compound ID>  (34) 
3250

>  <original ID>  (34) 
JYOLCCCEPYDXKP-UHFFFAOYSA-N

>  <alias>  (34) 
None

>  <fragmenstein_runtime>  (34) 
0.870099

>  <score_inspiration>  (34) 
0.600551

>  <name>  (34) 
JYOLCCCEPYDXKP-UHFFFAOYSA-N

>  <fragmenstein_mode>  (34) 
expansion

>  <fragmenstein_error>  (34) 
None

>  <fragmenstein_outcome>  (34) 
acceptable

>  <inchikey>  (34) 
JYOLCCCEPYDXKP-UHFFFAOYSA-N

>  <tags>  (34) 
Fragmenstein placed

>  <SLURM_JOB_ID>  (34) 
350564

>  <energy_score>  (34) 
-31.993522

>  <ref_pdb>  (34) 
7goy-a

>  <distance_score>  (34) 
0.98838

>  <csv_name>  (34) 
D68EV3C_iter1_knitwork_pure_split1000_batch003.csv

$$$$
2929
     RDKit          3D

 18 20  0  0  0  0  0  0  0  0999 V2000
   -4.9069   -1.1957   34.5506 C   0  0  0  0  0  0  0  0  0  0  0  0
   -3.8130   -0.3871   34.8257 C   0  0  0  0  0  0  0  0  0  0  0  0
   -2.7564   -0.2982   33.9146 C   0  0  0  0  0  0  0  0  0  0  0  0
   -2.7608   -1.0279   32.7155 C   0  0  0  0  0  0  0  0  0  0  0  0
   -1.7312   -0.7675   31.7014 C   0  0  0  0  0  0  0  0  0  0  0  0
   -1.6917   -1.1557   30.3350 C   0  0  0  0  0  0  0  0  0  0  0  0
   -0.7018   -0.3799   29.7835 C   0  0  0  0  0  0  0  0  0  0  0  0
   -0.2985   -0.0489   28.3973 C   0  0  0  0  0  0  0  0  0  0  0  0
   -0.9626    1.2137   28.0307 N   0  0  0  0  0  0  0  0  0  0  0  0
   -1.8612    1.0333   26.8955 C   0  0  0  0  0  0  0  0  0  0  0  0
   -2.5670    2.3187   26.4755 C   0  0  0  0  0  0  0  0  0  0  0  0
   -1.5794    3.4538   26.2541 C   0  0  0  0  0  0  0  0  0  0  0  0
   -0.6995    3.6195   27.4854 C   0  0  0  0  0  0  0  0  0  0  0  0
   -0.0036    2.3049   27.8397 C   0  0  0  0  0  0  0  0  0  0  0  0
   -0.0630    0.2909   30.7723 O   0  0  0  0  0  0  0  0  0  0  0  0
   -0.6919    0.0419   31.9708 N   0  0  0  0  0  0  0  0  0  0  0  0
   -3.8335   -1.8952   32.4889 C   0  0  0  0  0  0  0  0  0  0  0  0
   -4.9140   -1.9544   33.3878 C   0  0  0  0  0  0  0  0  0  0  0  0
  1  2  2  0
  2  3  1  0
  3  4  2  0
  4  5  1  0
  5  6  1  0
  6  7  2  0
  7  8  1  0
  8  9  1  0
  9 10  1  0
 10 11  1  0
 11 12  1  0
 12 13  1  0
 13 14  1  0
  7 15  1  0
 15 16  1  0
  4 17  1  0
 17 18  2  0
 18  1  1  0
 16  5  2  0
 14  9  1  0
M  END
>  <HIPPO Pose ID>  (35) 
2929

>  <scratch_subdir>  (35) 
/opt/xchem-fragalysis-2/maxwin/BulkDock/SCRATCH/350564/C3251-P44

>  <ref_mols>  (35) 
7gp2-a,7goy-a

>  <original SMILES>  (35) 
c1ccc(-c2cc(CN3CCCCC3)on2)cc1

>  <HIPPO Compound ID>  (35) 
3251

>  <original ID>  (35) 
IDNKMEIJFTWUEG-UHFFFAOYSA-N

>  <alias>  (35) 
None

>  <fragmenstein_runtime>  (35) 
2.342982

>  <score_inspiration>  (35) 
0.490771

>  <name>  (35) 
IDNKMEIJFTWUEG-UHFFFAOYSA-N

>  <fragmenstein_mode>  (35) 
expansion

>  <fragmenstein_error>  (35) 
None

>  <fragmenstein_outcome>  (35) 
acceptable

>  <inchikey>  (35) 
IDNKMEIJFTWUEG-UHFFFAOYSA-N

>  <tags>  (35) 
Fragmenstein placed

>  <SLURM_JOB_ID>  (35) 
350564

>  <energy_score>  (35) 
-24.670956

>  <ref_pdb>  (35) 
7gp2-a

>  <distance_score>  (35) 
0.998154

>  <csv_name>  (35) 
D68EV3C_iter1_knitwork_pure_split1000_batch003.csv

$$$$
2953
     RDKit          3D

 24 25  0  0  0  0  0  0  0  0999 V2000
  -10.8396   -2.5982   37.1397 C   0  0  0  0  0  0  0  0  0  0  0  0
   -9.7029   -2.5175   36.2841 O   0  0  0  0  0  0  0  0  0  0  0  0
   -8.9840   -1.2985   36.4779 C   0  0  0  0  0  0  0  0  0  0  0  0
   -7.7209   -1.2977   35.6002 C   0  0  0  0  0  0  0  0  0  0  0  0
   -6.7158   -0.4043   36.1702 N   0  0  0  0  0  0  0  0  0  0  0  0
   -6.9399    0.9919   35.8172 C   0  0  0  0  0  0  0  0  0  0  0  0
   -5.3349   -0.8339   35.9549 C   0  0  0  0  0  0  0  0  0  0  0  0
   -4.7727   -0.7902   34.5308 C   0  0  0  0  0  0  0  0  0  0  0  0
   -3.2962   -1.1912   34.5748 C   0  0  0  0  0  0  0  0  0  0  0  0
   -2.6309   -0.9651   33.3244 N   0  0  0  0  0  0  0  0  0  0  0  0
   -2.4876   -1.8737   32.0875 C   0  0  0  0  0  0  0  0  0  0  0  0
   -2.9526   -2.9195   31.8591 O   0  0  0  0  0  0  0  0  0  0  0  0
   -1.6921   -1.1505   31.0845 C   0  0  0  0  0  0  0  0  0  0  0  0
   -1.6007   -1.4011   29.6955 C   0  0  0  0  0  0  0  0  0  0  0  0
   -0.9222   -0.3150   29.2019 C   0  0  0  0  0  0  0  0  0  0  0  0
   -0.6470    0.1838   27.8317 C   0  0  0  0  0  0  0  0  0  0  0  0
   -1.0791    1.5894   27.7206 N   0  0  0  0  0  0  0  0  0  0  0  0
   -2.0289    1.7987   26.6245 C   0  0  0  0  0  0  0  0  0  0  0  0
   -2.4749    3.2545   26.4823 C   0  0  0  0  0  0  0  0  0  0  0  0
   -1.2777    4.1818   26.3748 C   0  0  0  0  0  0  0  0  0  0  0  0
   -0.3557    3.9610   27.5650 C   0  0  0  0  0  0  0  0  0  0  0  0
    0.0700    2.4977   27.6613 C   0  0  0  0  0  0  0  0  0  0  0  0
   -0.4929    0.4533   30.2386 O   0  0  0  0  0  0  0  0  0  0  0  0
   -0.9922   -0.0511   31.4225 N   0  0  0  0  0  0  0  0  0  0  0  0
  1  2  1  0
  2  3  1  0
  3  4  1  0
  4  5  1  0
  5  6  1  0
  5  7  1  0
  7  8  1  0
  8  9  1  0
  9 10  1  0
 10 11  1  0
 11 12  2  0
 11 13  1  0
 13 14  1  0
 14 15  2  0
 15 16  1  0
 16 17  1  0
 17 18  1  0
 18 19  1  0
 19 20  1  0
 20 21  1  0
 21 22  1  0
 15 23  1  0
 23 24  1  0
 24 13  2  0
 22 17  1  0
M  END
>  <HIPPO Pose ID>  (36) 
2953

>  <scratch_subdir>  (36) 
/opt/xchem-fragalysis-2/maxwin/BulkDock/SCRATCH/350564/C3254-P44

>  <ref_mols>  (36) 
7gp2-a,7goy-a

>  <original SMILES>  (36) 
COCCN(C)CCCNC(=O)c1cc(CN2CCCCC2)on1

>  <HIPPO Compound ID>  (36) 
3254

>  <original ID>  (36) 
FTXYGSXUURDKCD-UHFFFAOYSA-N

>  <alias>  (36) 
None

>  <fragmenstein_runtime>  (36) 
3.364967

>  <score_inspiration>  (36) 
0.521525

>  <name>  (36) 
FTXYGSXUURDKCD-UHFFFAOYSA-N

>  <fragmenstein_mode>  (36) 
expansion

>  <fragmenstein_error>  (36) 
None

>  <fragmenstein_outcome>  (36) 
acceptable

>  <inchikey>  (36) 
FTXYGSXUURDKCD-UHFFFAOYSA-N

>  <tags>  (36) 
Fragmenstein placed

>  <SLURM_JOB_ID>  (36) 
350564

>  <energy_score>  (36) 
-31.335784

>  <ref_pdb>  (36) 
7gp2-a

>  <distance_score>  (36) 
0.956327

>  <csv_name>  (36) 
D68EV3C_iter1_knitwork_pure_split1000_batch003.csv

$$$$
3017
     RDKit          3D

 22 23  0  0  0  0  0  0  0  0999 V2000
   -8.9144   -1.3093   35.9430 C   0  0  0  0  0  0  0  0  0  0  0  0
   -7.4861   -1.2550   35.9910 N   0  0  0  0  0  0  0  0  0  0  0  0
   -6.5398   -0.1421   36.4998 C   0  0  0  0  0  0  0  0  0  0  0  0
   -6.7786    0.8691   37.0283 O   0  0  0  0  0  0  0  0  0  0  0  0
   -5.1167   -0.6386   36.2872 C   0  0  0  0  0  0  0  0  0  0  0  0
   -4.6542   -0.6451   34.8330 C   0  0  0  0  0  0  0  0  0  0  0  0
   -3.2119   -1.1480   34.7847 C   0  0  0  0  0  0  0  0  0  0  0  0
   -2.5818   -0.9215   33.5175 N   0  0  0  0  0  0  0  0  0  0  0  0
   -2.5659   -1.7825   32.2383 C   0  0  0  0  0  0  0  0  0  0  0  0
   -3.1263   -2.7751   31.9875 O   0  0  0  0  0  0  0  0  0  0  0  0
   -1.6890   -1.1251   31.2582 C   0  0  0  0  0  0  0  0  0  0  0  0
   -1.5836   -1.3717   29.8697 C   0  0  0  0  0  0  0  0  0  0  0  0
   -0.7685   -0.3668   29.4116 C   0  0  0  0  0  0  0  0  0  0  0  0
   -0.4126    0.1237   28.0581 C   0  0  0  0  0  0  0  0  0  0  0  0
   -0.9911    1.4610   27.8625 N   0  0  0  0  0  0  0  0  0  0  0  0
   -0.1099    2.5412   28.3390 C   0  0  0  0  0  0  0  0  0  0  0  0
   -0.2908    3.8713   27.5978 C   0  0  0  0  0  0  0  0  0  0  0  0
   -1.7327    4.1093   27.1834 C   0  0  0  0  0  0  0  0  0  0  0  0
   -2.3257    2.9281   26.4235 C   0  0  0  0  0  0  0  0  0  0  0  0
   -1.4416    1.6878   26.4994 C   0  0  0  0  0  0  0  0  0  0  0  0
   -0.2900    0.3396   30.4684 O   0  0  0  0  0  0  0  0  0  0  0  0
   -0.8834   -0.1113   31.6286 N   0  0  0  0  0  0  0  0  0  0  0  0
  1  2  1  0
  2  3  1  0
  3  4  2  0
  3  5  1  0
  5  6  1  0
  6  7  1  0
  7  8  1  0
  8  9  1  0
  9 10  2  0
  9 11  1  0
 11 12  1  0
 12 13  2  0
 13 14  1  0
 14 15  1  0
 15 16  1  0
 16 17  1  0
 17 18  1  0
 18 19  1  0
 19 20  1  0
 13 21  1  0
 21 22  1  0
 22 11  2  0
 20 15  1  0
M  END
>  <HIPPO Pose ID>  (37) 
3017

>  <scratch_subdir>  (37) 
/opt/xchem-fragalysis-2/maxwin/BulkDock/SCRATCH/350564/C3259-P44

>  <ref_mols>  (37) 
7gp2-a,7goy-a

>  <original SMILES>  (37) 
CNC(=O)CCCNC(=O)c1cc(CN2CCCCC2)on1

>  <HIPPO Compound ID>  (37) 
3259

>  <original ID>  (37) 
DEPBGOBZKCJNEA-UHFFFAOYSA-N

>  <alias>  (37) 
None

>  <fragmenstein_runtime>  (37) 
3.932547

>  <score_inspiration>  (37) 
0.534448

>  <name>  (37) 
DEPBGOBZKCJNEA-UHFFFAOYSA-N

>  <fragmenstein_mode>  (37) 
expansion

>  <fragmenstein_error>  (37) 
None

>  <fragmenstein_outcome>  (37) 
acceptable

>  <inchikey>  (37) 
DEPBGOBZKCJNEA-UHFFFAOYSA-N

>  <tags>  (37) 
Fragmenstein placed

>  <SLURM_JOB_ID>  (37) 
350564

>  <energy_score>  (37) 
-17.101174

>  <ref_pdb>  (37) 
7gp2-a

>  <distance_score>  (37) 
0.990601

>  <csv_name>  (37) 
D68EV3C_iter1_knitwork_pure_split1000_batch003.csv

$$$$
3019
     RDKit          3D

 22 23  0  0  0  0  0  0  0  0999 V2000
   -9.1167    1.0966   35.6659 C   0  0  0  0  0  0  0  0  0  0  0  0
   -7.7777    0.5989   35.7677 N   0  0  0  0  0  0  0  0  0  0  0  0
   -7.2549   -0.8174   36.1125 C   0  0  0  0  0  0  0  0  0  0  0  0
   -7.8320   -1.7776   36.4422 O   0  0  0  0  0  0  0  0  0  0  0  0
   -5.7309   -0.7551   36.0554 C   0  0  0  0  0  0  0  0  0  0  0  0
   -5.1416   -0.7403   34.6450 C   0  0  0  0  0  0  0  0  0  0  0  0
   -3.6601   -1.1083   34.7195 C   0  0  0  0  0  0  0  0  0  0  0  0
   -2.9456   -0.8849   33.4941 N   0  0  0  0  0  0  0  0  0  0  0  0
   -2.8775   -1.7305   32.2046 C   0  0  0  0  0  0  0  0  0  0  0  0
   -3.4514   -2.7019   31.9058 O   0  0  0  0  0  0  0  0  0  0  0  0
   -1.9439   -1.0753   31.2694 C   0  0  0  0  0  0  0  0  0  0  0  0
   -1.7231   -1.3498   29.8951 C   0  0  0  0  0  0  0  0  0  0  0  0
   -0.8349   -0.3830   29.4925 C   0  0  0  0  0  0  0  0  0  0  0  0
   -0.2484    0.0299   28.1931 C   0  0  0  0  0  0  0  0  0  0  0  0
   -0.8059    1.3301   27.8204 N   0  0  0  0  0  0  0  0  0  0  0  0
    0.1803    2.3381   27.4731 C   0  0  0  0  0  0  0  0  0  0  0  0
   -0.4603    3.7287   27.4625 C   0  0  0  0  0  0  0  0  0  0  0  0
   -1.8533    3.7557   26.8368 C   0  0  0  0  0  0  0  0  0  0  0  0
   -2.1440    2.4968   26.0402 C   0  0  0  0  0  0  0  0  0  0  0  0
   -1.9306    1.2396   26.8890 C   0  0  0  0  0  0  0  0  0  0  0  0
   -0.4790    0.3715   30.5666 O   0  0  0  0  0  0  0  0  0  0  0  0
   -1.1803   -0.0445   31.6782 N   0  0  0  0  0  0  0  0  0  0  0  0
  1  2  1  0
  2  3  1  0
  3  4  2  0
  3  5  1  0
  5  6  1  0
  6  7  1  0
  7  8  1  0
  8  9  1  0
  9 10  2  0
  9 11  1  0
 11 12  1  0
 12 13  2  0
 13 14  1  0
 14 15  1  0
 15 16  1  0
 16 17  1  0
 17 18  1  0
 18 19  1  0
 19 20  1  0
 13 21  1  0
 21 22  1  0
 22 11  2  0
 20 15  1  0
M  END
>  <HIPPO Pose ID>  (38) 
3019

>  <scratch_subdir>  (38) 
/opt/xchem-fragalysis-2/maxwin/BulkDock/SCRATCH/350564/C3259-P59

>  <ref_mols>  (38) 
7gp2-a,7goy-a

>  <original SMILES>  (38) 
CNC(=O)CCCNC(=O)c1cc(CN2CCCCC2)on1

>  <HIPPO Compound ID>  (38) 
3259

>  <original ID>  (38) 
DEPBGOBZKCJNEA-UHFFFAOYSA-N

>  <alias>  (38) 
None

>  <fragmenstein_runtime>  (38) 
3.00709

>  <score_inspiration>  (38) 
0.549838

>  <name>  (38) 
DEPBGOBZKCJNEA-UHFFFAOYSA-N

>  <fragmenstein_mode>  (38) 
expansion

>  <fragmenstein_error>  (38) 
None

>  <fragmenstein_outcome>  (38) 
acceptable

>  <inchikey>  (38) 
DEPBGOBZKCJNEA-UHFFFAOYSA-N

>  <tags>  (38) 
Fragmenstein placed

>  <SLURM_JOB_ID>  (38) 
350564

>  <energy_score>  (38) 
-16.990133

>  <ref_pdb>  (38) 
7goy-a

>  <distance_score>  (38) 
0.725188

>  <csv_name>  (38) 
D68EV3C_iter1_knitwork_pure_split1000_batch003.csv

$$$$
3053
     RDKit          3D

 14 15  0  0  0  0  0  0  0  0999 V2000
   -1.3952   -1.8566   28.5959 C   0  0  0  0  0  0  0  0  0  0  0  0
   -0.9969   -0.8365   29.5811 C   0  0  0  0  0  0  0  0  0  0  0  0
   -0.8493   -1.3071   30.8476 O   0  0  0  0  0  0  0  0  0  0  0  0
   -0.3336   -0.3188   31.6527 N   0  0  0  0  0  0  0  0  0  0  0  0
   -0.1666    0.7404   30.8506 C   0  0  0  0  0  0  0  0  0  0  0  0
    0.3838    1.9122   31.4540 C   0  0  0  0  0  0  0  0  0  0  0  0
    0.8085    2.8628   31.9708 N   0  0  0  0  0  0  0  0  0  0  0  0
   -0.6708    0.5079   29.5334 C   0  0  0  0  0  0  0  0  0  0  0  0
   -0.8366    1.3823   28.4803 N   0  0  0  0  0  0  0  0  0  0  0  0
   -1.6311    0.9981   27.2971 C   0  0  0  0  0  0  0  0  0  0  0  0
   -2.3044    2.2072   26.6512 C   0  0  0  0  0  0  0  0  0  0  0  0
   -1.3137    3.3208   26.3542 C   0  0  0  0  0  0  0  0  0  0  0  0
   -0.5359    3.6735   27.6147 C   0  0  0  0  0  0  0  0  0  0  0  0
    0.1497    2.4407   28.2017 C   0  0  0  0  0  0  0  0  0  0  0  0
  1  2  1  0
  2  3  1  0
  3  4  1  0
  4  5  2  0
  5  6  1  0
  6  7  3  0
  5  8  1  0
  8  9  1  0
  9 10  1  0
 10 11  1  0
 11 12  1  0
 12 13  1  0
 13 14  1  0
  8  2  2  0
 14  9  1  0
M  END
>  <HIPPO Pose ID>  (39) 
3053

>  <scratch_subdir>  (39) 
/opt/xchem-fragalysis-2/maxwin/BulkDock/SCRATCH/350564/C3262-P44

>  <ref_mols>  (39) 
7gp2-a,7goy-a

>  <original SMILES>  (39) 
Cc1onc(C#N)c1N1CCCCC1

>  <HIPPO Compound ID>  (39) 
3262

>  <original ID>  (39) 
DEOIIBYNEIYHKZ-UHFFFAOYSA-N

>  <alias>  (39) 
None

>  <fragmenstein_runtime>  (39) 
1.417504

>  <score_inspiration>  (39) 
0.623606

>  <name>  (39) 
DEOIIBYNEIYHKZ-UHFFFAOYSA-N

>  <fragmenstein_mode>  (39) 
expansion

>  <fragmenstein_error>  (39) 
None

>  <fragmenstein_outcome>  (39) 
acceptable

>  <inchikey>  (39) 
DEOIIBYNEIYHKZ-UHFFFAOYSA-N

>  <tags>  (39) 
Fragmenstein placed

>  <SLURM_JOB_ID>  (39) 
350564

>  <energy_score>  (39) 
-31.719257

>  <ref_pdb>  (39) 
7gp2-a

>  <distance_score>  (39) 
0.796212

>  <csv_name>  (39) 
D68EV3C_iter1_knitwork_pure_split1000_batch003.csv

$$$$
3057
     RDKit          3D

 14 15  0  0  0  0  0  0  0  0999 V2000
   -1.8614   -1.6641   28.8057 C   0  0  0  0  0  0  0  0  0  0  0  0
   -1.1689   -0.6877   29.6649 C   0  0  0  0  0  0  0  0  0  0  0  0
   -0.9394   -1.1498   30.9231 O   0  0  0  0  0  0  0  0  0  0  0  0
   -0.2226   -0.2245   31.6378 N   0  0  0  0  0  0  0  0  0  0  0  0
   -0.0077    0.7889   30.7906 C   0  0  0  0  0  0  0  0  0  0  0  0
    0.8004    1.8592   31.2832 C   0  0  0  0  0  0  0  0  0  0  0  0
    1.4468    2.7312   31.6993 N   0  0  0  0  0  0  0  0  0  0  0  0
   -0.6723    0.6019   29.5345 C   0  0  0  0  0  0  0  0  0  0  0  0
   -0.8359    1.4708   28.4733 N   0  0  0  0  0  0  0  0  0  0  0  0
   -1.1449    0.9945   27.1171 C   0  0  0  0  0  0  0  0  0  0  0  0
   -2.1544    1.9189   26.4424 C   0  0  0  0  0  0  0  0  0  0  0  0
   -1.5978    3.3299   26.3503 C   0  0  0  0  0  0  0  0  0  0  0  0
   -1.2327    3.8176   27.7416 C   0  0  0  0  0  0  0  0  0  0  0  0
   -0.2994    2.8504   28.4774 C   0  0  0  0  0  0  0  0  0  0  0  0
  1  2  1  0
  2  3  1  0
  3  4  1  0
  4  5  2  0
  5  6  1  0
  6  7  3  0
  5  8  1  0
  8  9  1  0
  9 10  1  0
 10 11  1  0
 11 12  1  0
 12 13  1  0
 13 14  1  0
  8  2  2  0
 14  9  1  0
M  END
>  <HIPPO Pose ID>  (40) 
3057

>  <scratch_subdir>  (40) 
/opt/xchem-fragalysis-2/maxwin/BulkDock/SCRATCH/350564/C3262-P59

>  <ref_mols>  (40) 
7gp2-a,7goy-a

>  <original SMILES>  (40) 
Cc1onc(C#N)c1N1CCCCC1

>  <HIPPO Compound ID>  (40) 
3262

>  <original ID>  (40) 
DEOIIBYNEIYHKZ-UHFFFAOYSA-N

>  <alias>  (40) 
None

>  <fragmenstein_runtime>  (40) 
1.353787

>  <score_inspiration>  (40) 
0.611939

>  <name>  (40) 
DEOIIBYNEIYHKZ-UHFFFAOYSA-N

>  <fragmenstein_mode>  (40) 
expansion

>  <fragmenstein_error>  (40) 
None

>  <fragmenstein_outcome>  (40) 
acceptable

>  <inchikey>  (40) 
DEOIIBYNEIYHKZ-UHFFFAOYSA-N

>  <tags>  (40) 
Fragmenstein placed

>  <SLURM_JOB_ID>  (40) 
350564

>  <energy_score>  (40) 
-30.014686

>  <ref_pdb>  (40) 
7goy-a

>  <distance_score>  (40) 
0.774472

>  <csv_name>  (40) 
D68EV3C_iter1_knitwork_pure_split1000_batch003.csv

$$$$
3068
     RDKit          3D

 27 31  0  0  0  0  0  0  0  0999 V2000
    0.1180   -5.6483   31.4240 C   0  0  0  0  0  0  0  0  0  0  0  0
    0.2292   -4.2636   31.4194 C   0  0  0  0  0  0  0  0  0  0  0  0
    1.0476   -3.6094   30.4931 C   0  0  0  0  0  0  0  0  0  0  0  0
    1.7527   -4.3806   29.5582 C   0  0  0  0  0  0  0  0  0  0  0  0
    1.6906   -5.7734   29.5727 C   0  0  0  0  0  0  0  0  0  0  0  0
    0.8421   -6.4134   30.5067 C   0  0  0  0  0  0  0  0  0  0  0  0
    2.5358   -6.2282   28.5185 C   0  0  0  0  0  0  0  0  0  0  0  0
    3.0469   -5.1342   27.8660 C   0  0  0  0  0  0  0  0  0  0  0  0
    2.5859   -4.0190   28.5158 N   0  0  0  0  0  0  0  0  0  0  0  0
    2.9400   -2.6541   28.1446 C   0  0  0  0  0  0  0  0  0  0  0  0
    4.0263   -2.0820   29.0614 C   0  0  0  0  0  0  0  0  0  0  0  0
    4.4698   -0.7163   28.7502 N   0  0  0  0  0  0  0  0  0  0  0  0
    3.4091    0.2938   28.6737 C   0  0  0  0  0  0  0  0  0  0  0  0
    2.6220    0.3701   29.9382 C   0  0  0  0  0  0  0  0  0  0  0  0
    3.0795    0.4165   31.2417 C   0  0  0  0  0  0  0  0  0  0  0  0
    1.9752    0.4450   32.0358 N   0  0  0  0  0  0  0  0  0  0  0  0
    0.8232    0.4310   31.3532 N   0  0  0  0  0  0  0  0  0  0  0  0
    1.2005    0.4307   30.0652 C   0  0  0  0  0  0  0  0  0  0  0  0
    0.2090    0.5216   29.0043 C   0  0  0  0  0  0  0  0  0  0  0  0
   -0.6072   -0.5825   28.6803 C   0  0  0  0  0  0  0  0  0  0  0  0
   -1.6223   -0.4618   27.7286 C   0  0  0  0  0  0  0  0  0  0  0  0
   -1.8104    0.7734   27.1499 C   0  0  0  0  0  0  0  0  0  0  0  0
   -1.0060    1.8459   27.4504 C   0  0  0  0  0  0  0  0  0  0  0  0
    0.0246    1.7507   28.3574 C   0  0  0  0  0  0  0  0  0  0  0  0
   -1.3719    2.9718   26.7816 O   0  0  0  0  0  0  0  0  0  0  0  0
   -2.5923    2.5231   26.1539 C   0  0  0  0  0  0  0  0  0  0  0  0
   -2.7819    1.0986   26.2576 O   0  0  0  0  0  0  0  0  0  0  0  0
  1  2  2  0
  2  3  1  0
  3  4  2  0
  4  5  1  0
  5  6  2  0
  5  7  1  0
  7  8  2  0
  8  9  1  0
  9 10  1  0
 10 11  1  0
 11 12  1  0
 12 13  1  0
 13 14  1  0
 14 15  2  0
 15 16  1  0
 16 17  1  0
 17 18  2  0
 18 19  1  0
 19 20  2  0
 20 21  1  0
 21 22  2  0
 22 23  1  0
 23 24  2  0
 23 25  1  0
 25 26  1  0
 26 27  1  0
  6  1  1  0
 18 14  1  0
 24 19  1  0
  9  4  1  0
 27 22  1  0
M  END
>  <HIPPO Pose ID>  (41) 
3068

>  <scratch_subdir>  (41) 
/opt/xchem-fragalysis-2/maxwin/BulkDock/SCRATCH/350563/C2312-P13

>  <ref_mols>  (41) 
7gp9-a,7gok-a

>  <original SMILES>  (41) 
c1ccc2c(c1)ccn2CCNCc1c[nH]nc1-c1ccc2c(c1)OCO2

>  <HIPPO Compound ID>  (41) 
2312

>  <original ID>  (41) 
WYZBNBVUTXHZAX-UHFFFAOYSA-N

>  <alias>  (41) 
None

>  <fragmenstein_runtime>  (41) 
2.316715

>  <score_inspiration>  (41) 
0.408163

>  <name>  (41) 
WYZBNBVUTXHZAX-UHFFFAOYSA-N

>  <fragmenstein_mode>  (41) 
expansion

>  <fragmenstein_error>  (41) 
None

>  <fragmenstein_outcome>  (41) 
acceptable

>  <inchikey>  (41) 
WYZBNBVUTXHZAX-UHFFFAOYSA-N

>  <tags>  (41) 
Fragmenstein placed

>  <SLURM_JOB_ID>  (41) 
350563

>  <energy_score>  (41) 
-39.642841

>  <ref_pdb>  (41) 
7gp9-a

>  <distance_score>  (41) 
0.945841

>  <csv_name>  (41) 
D68EV3C_iter1_knitwork_pure_split1000_batch002.csv

$$$$
3069
     RDKit          3D

 21 22  0  0  0  0  0  0  0  0999 V2000
   -3.1870   -2.6908   31.7275 O   0  0  0  0  0  0  0  0  0  0  0  0
   -2.6674   -1.6994   32.0551 C   0  0  0  0  0  0  0  0  0  0  0  0
   -2.8427   -0.8543   33.3322 N   0  0  0  0  0  0  0  0  0  0  0  0
   -3.6244   -1.1005   34.5179 C   0  0  0  0  0  0  0  0  0  0  0  0
   -5.1241   -0.9444   34.2668 C   0  0  0  0  0  0  0  0  0  0  0  0
   -5.8435   -1.3048   35.4407 O   0  0  0  0  0  0  0  0  0  0  0  0
   -7.2231   -1.0283   35.2919 C   0  0  0  0  0  0  0  0  0  0  0  0
   -7.4416    0.2232   35.7522 F   0  0  0  0  0  0  0  0  0  0  0  0
   -7.8901   -1.8782   36.1151 F   0  0  0  0  0  0  0  0  0  0  0  0
   -1.7446   -1.0000   31.1409 C   0  0  0  0  0  0  0  0  0  0  0  0
   -1.4775   -1.2955   29.7805 C   0  0  0  0  0  0  0  0  0  0  0  0
   -0.6313   -0.2949   29.3677 C   0  0  0  0  0  0  0  0  0  0  0  0
    0.0040    0.0435   28.0652 C   0  0  0  0  0  0  0  0  0  0  0  0
   -0.5081    1.2459   27.3933 N   0  0  0  0  0  0  0  0  0  0  0  0
   -1.9194    1.1446   27.0112 C   0  0  0  0  0  0  0  0  0  0  0  0
   -2.5374    2.4807   26.5809 C   0  0  0  0  0  0  0  0  0  0  0  0
   -1.4897    3.4397   26.0440 C   0  0  0  0  0  0  0  0  0  0  0  0
   -0.3984    3.6864   27.0882 C   0  0  0  0  0  0  0  0  0  0  0  0
   -0.1884    2.5077   28.0488 C   0  0  0  0  0  0  0  0  0  0  0  0
   -0.3523    0.5137   30.4240 O   0  0  0  0  0  0  0  0  0  0  0  0
   -1.0661    0.0947   31.5322 N   0  0  0  0  0  0  0  0  0  0  0  0
  1  2  2  0
  2  3  1  0
  3  4  1  0
  4  5  1  0
  5  6  1  0
  6  7  1  0
  7  8  1  0
  7  9  1  0
  2 10  1  0
 10 11  1  0
 11 12  2  0
 12 13  1  0
 13 14  1  0
 14 15  1  0
 15 16  1  0
 16 17  1  0
 17 18  1  0
 18 19  1  0
 12 20  1  0
 20 21  1  0
 21 10  2  0
 19 14  1  0
M  END
>  <HIPPO Pose ID>  (42) 
3069

>  <scratch_subdir>  (42) 
/opt/xchem-fragalysis-2/maxwin/BulkDock/SCRATCH/350564/C3264-P44

>  <ref_mols>  (42) 
7gp2-a,7goy-a

>  <original SMILES>  (42) 
O=C(NCCOC(F)F)c1cc(CN2CCCCC2)on1

>  <HIPPO Compound ID>  (42) 
3264

>  <original ID>  (42) 
LBXRJYKIHOQRLN-UHFFFAOYSA-N

>  <alias>  (42) 
None

>  <fragmenstein_runtime>  (42) 
1.910402

>  <score_inspiration>  (42) 
0.751479

>  <name>  (42) 
LBXRJYKIHOQRLN-UHFFFAOYSA-N

>  <fragmenstein_mode>  (42) 
expansion

>  <fragmenstein_error>  (42) 
None

>  <fragmenstein_outcome>  (42) 
acceptable

>  <inchikey>  (42) 
LBXRJYKIHOQRLN-UHFFFAOYSA-N

>  <tags>  (42) 
Fragmenstein placed

>  <SLURM_JOB_ID>  (42) 
350564

>  <energy_score>  (42) 
-31.776667

>  <ref_pdb>  (42) 
7gp2-a

>  <distance_score>  (42) 
0.814004

>  <csv_name>  (42) 
D68EV3C_iter1_knitwork_pure_split1000_batch003.csv

$$$$
3073
     RDKit          3D

 27 31  0  0  0  0  0  0  0  0999 V2000
   -0.2284   -6.0259   31.0573 C   0  0  0  0  0  0  0  0  0  0  0  0
   -0.0306   -4.6570   31.2022 C   0  0  0  0  0  0  0  0  0  0  0  0
    0.7900   -3.9517   30.3179 C   0  0  0  0  0  0  0  0  0  0  0  0
    1.4264   -4.6612   29.2888 C   0  0  0  0  0  0  0  0  0  0  0  0
    1.2709   -6.0424   29.1469 C   0  0  0  0  0  0  0  0  0  0  0  0
    0.4017   -6.7272   30.0243 C   0  0  0  0  0  0  0  0  0  0  0  0
    2.1245   -6.4385   28.0842 C   0  0  0  0  0  0  0  0  0  0  0  0
    2.7003   -5.3142   27.5468 C   0  0  0  0  0  0  0  0  0  0  0  0
    2.2844   -4.2423   28.2895 N   0  0  0  0  0  0  0  0  0  0  0  0
    2.7228   -2.8719   28.0550 C   0  0  0  0  0  0  0  0  0  0  0  0
    3.8153   -2.4384   29.0378 C   0  0  0  0  0  0  0  0  0  0  0  0
    4.3690   -1.0958   28.8151 N   0  0  0  0  0  0  0  0  0  0  0  0
    3.3906   -0.0053   28.7587 C   0  0  0  0  0  0  0  0  0  0  0  0
    2.5892    0.0828   30.0129 C   0  0  0  0  0  0  0  0  0  0  0  0
    3.0308    0.0659   31.3226 C   0  0  0  0  0  0  0  0  0  0  0  0
    1.9198    0.1435   32.1036 N   0  0  0  0  0  0  0  0  0  0  0  0
    0.7784    0.2134   31.4070 N   0  0  0  0  0  0  0  0  0  0  0  0
    1.1724    0.2253   30.1239 C   0  0  0  0  0  0  0  0  0  0  0  0
    0.1997    0.3926   29.0547 C   0  0  0  0  0  0  0  0  0  0  0  0
   -0.6498   -0.6718   28.6884 C   0  0  0  0  0  0  0  0  0  0  0  0
   -1.6462   -0.4882   27.7282 C   0  0  0  0  0  0  0  0  0  0  0  0
   -1.7842    0.7682   27.1826 C   0  0  0  0  0  0  0  0  0  0  0  0
   -0.9495    1.8039   27.5257 C   0  0  0  0  0  0  0  0  0  0  0  0
    0.0653    1.6466   28.4434 C   0  0  0  0  0  0  0  0  0  0  0  0
   -1.2719    2.9606   26.8870 O   0  0  0  0  0  0  0  0  0  0  0  0
   -2.4949    2.5685   26.2258 C   0  0  0  0  0  0  0  0  0  0  0  0
   -2.7335    1.1496   26.2889 O   0  0  0  0  0  0  0  0  0  0  0  0
  1  2  2  0
  2  3  1  0
  3  4  2  0
  4  5  1  0
  5  6  2  0
  5  7  1  0
  7  8  2  0
  8  9  1  0
  9 10  1  0
 10 11  1  0
 11 12  1  0
 12 13  1  0
 13 14  1  0
 14 15  2  0
 15 16  1  0
 16 17  1  0
 17 18  2  0
 18 19  1  0
 19 20  2  0
 20 21  1  0
 21 22  2  0
 22 23  1  0
 23 24  2  0
 23 25  1  0
 25 26  1  0
 26 27  1  0
  6  1  1  0
 18 14  1  0
 24 19  1  0
  9  4  1  0
 27 22  1  0
M  END
>  <HIPPO Pose ID>  (43) 
3073

>  <scratch_subdir>  (43) 
/opt/xchem-fragalysis-2/maxwin/BulkDock/SCRATCH/350563/C2312-P40

>  <ref_mols>  (43) 
7gp9-a,7gok-a

>  <original SMILES>  (43) 
c1ccc2c(c1)ccn2CCNCc1c[nH]nc1-c1ccc2c(c1)OCO2

>  <HIPPO Compound ID>  (43) 
2312

>  <original ID>  (43) 
WYZBNBVUTXHZAX-UHFFFAOYSA-N

>  <alias>  (43) 
None

>  <fragmenstein_runtime>  (43) 
1.830637

>  <score_inspiration>  (43) 
0.484533

>  <name>  (43) 
WYZBNBVUTXHZAX-UHFFFAOYSA-N

>  <fragmenstein_mode>  (43) 
expansion

>  <fragmenstein_error>  (43) 
None

>  <fragmenstein_outcome>  (43) 
acceptable

>  <inchikey>  (43) 
WYZBNBVUTXHZAX-UHFFFAOYSA-N

>  <tags>  (43) 
Fragmenstein placed

>  <SLURM_JOB_ID>  (43) 
350563

>  <energy_score>  (43) 
-39.757172

>  <ref_pdb>  (43) 
7gok-a

>  <distance_score>  (43) 
0.752039

>  <csv_name>  (43) 
D68EV3C_iter1_knitwork_pure_split1000_batch002.csv

$$$$
3078
     RDKit          3D

 21 22  0  0  0  0  0  0  0  0999 V2000
   -3.4265   -2.7474   31.8515 O   0  0  0  0  0  0  0  0  0  0  0  0
   -2.8614   -1.7913   32.2080 C   0  0  0  0  0  0  0  0  0  0  0  0
   -2.9565   -1.0104   33.5335 N   0  0  0  0  0  0  0  0  0  0  0  0
   -3.8333   -1.1853   34.6601 C   0  0  0  0  0  0  0  0  0  0  0  0
   -5.2762   -0.7877   34.3579 C   0  0  0  0  0  0  0  0  0  0  0  0
   -6.1004   -1.2362   35.4263 O   0  0  0  0  0  0  0  0  0  0  0  0
   -7.4239   -0.7565   35.2919 C   0  0  0  0  0  0  0  0  0  0  0  0
   -7.4761    0.4592   35.8805 F   0  0  0  0  0  0  0  0  0  0  0  0
   -8.2107   -1.5874   36.0238 F   0  0  0  0  0  0  0  0  0  0  0  0
   -1.8990   -1.1107   31.3261 C   0  0  0  0  0  0  0  0  0  0  0  0
   -1.6612   -1.3367   29.9461 C   0  0  0  0  0  0  0  0  0  0  0  0
   -0.7806   -0.3467   29.5891 C   0  0  0  0  0  0  0  0  0  0  0  0
   -0.2070    0.1347   28.3098 C   0  0  0  0  0  0  0  0  0  0  0  0
   -0.9063    1.3706   27.9237 N   0  0  0  0  0  0  0  0  0  0  0  0
   -1.9976    1.0882   26.9847 C   0  0  0  0  0  0  0  0  0  0  0  0
   -2.7431    2.3493   26.5542 C   0  0  0  0  0  0  0  0  0  0  0  0
   -1.7891    3.4085   26.0238 C   0  0  0  0  0  0  0  0  0  0  0  0
   -0.7049    3.6828   27.0570 C   0  0  0  0  0  0  0  0  0  0  0  0
    0.0203    2.3914   27.4344 C   0  0  0  0  0  0  0  0  0  0  0  0
   -0.4383    0.3693   30.6932 O   0  0  0  0  0  0  0  0  0  0  0  0
   -1.1444   -0.0946   31.7834 N   0  0  0  0  0  0  0  0  0  0  0  0
  1  2  2  0
  2  3  1  0
  3  4  1  0
  4  5  1  0
  5  6  1  0
  6  7  1  0
  7  8  1  0
  7  9  1  0
  2 10  1  0
 10 11  1  0
 11 12  2  0
 12 13  1  0
 13 14  1  0
 14 15  1  0
 15 16  1  0
 16 17  1  0
 17 18  1  0
 18 19  1  0
 12 20  1  0
 20 21  1  0
 21 10  2  0
 19 14  1  0
M  END
>  <HIPPO Pose ID>  (44) 
3078

>  <scratch_subdir>  (44) 
/opt/xchem-fragalysis-2/maxwin/BulkDock/SCRATCH/350564/C3264-P59

>  <ref_mols>  (44) 
7gp2-a,7goy-a

>  <original SMILES>  (44) 
O=C(NCCOC(F)F)c1cc(CN2CCCCC2)on1

>  <HIPPO Compound ID>  (44) 
3264

>  <original ID>  (44) 
LBXRJYKIHOQRLN-UHFFFAOYSA-N

>  <alias>  (44) 
None

>  <fragmenstein_runtime>  (44) 
2.354455

>  <score_inspiration>  (44) 
0.719217

>  <name>  (44) 
LBXRJYKIHOQRLN-UHFFFAOYSA-N

>  <fragmenstein_mode>  (44) 
expansion

>  <fragmenstein_error>  (44) 
None

>  <fragmenstein_outcome>  (44) 
acceptable

>  <inchikey>  (44) 
LBXRJYKIHOQRLN-UHFFFAOYSA-N

>  <tags>  (44) 
Fragmenstein placed

>  <SLURM_JOB_ID>  (44) 
350564

>  <energy_score>  (44) 
-36.644706

>  <ref_pdb>  (44) 
7goy-a

>  <distance_score>  (44) 
0.768107

>  <csv_name>  (44) 
D68EV3C_iter1_knitwork_pure_split1000_batch003.csv

$$$$
3144
     RDKit          3D

 23 24  0  0  0  0  0  0  0  0999 V2000
  -11.9820    2.9500   38.3874 C   0  0  0  0  0  0  0  0  0  0  0  0
  -12.2716    1.9109   37.3057 C   0  0  0  0  0  0  0  0  0  0  0  0
  -12.7904    0.6074   37.9106 C   0  0  0  0  0  0  0  0  0  0  0  0
  -11.1067    1.6837   36.4634 N   0  0  0  0  0  0  0  0  0  0  0  0
   -9.8947    1.1612   36.8105 C   0  0  0  0  0  0  0  0  0  0  0  0
   -9.1727    1.1575   35.6369 C   0  0  0  0  0  0  0  0  0  0  0  0
   -7.7821    0.7321   35.3385 C   0  0  0  0  0  0  0  0  0  0  0  0
   -7.2613   -0.7502   36.1925 S   0  0  0  0  0  0  0  0  0  0  0  0
   -7.1129   -0.4329   37.6025 O   0  0  0  0  0  0  0  0  0  0  0  0
   -8.0826   -1.8838   35.8013 O   0  0  0  0  0  0  0  0  0  0  0  0
   -5.6194   -1.0290   35.5635 C   0  0  0  0  0  0  0  0  0  0  0  0
   -5.6287   -1.8334   34.2802 C   0  0  0  0  0  0  0  0  0  0  0  0
   -4.3038   -1.9455   33.7256 N   0  0  0  0  0  0  0  0  0  0  0  0
   -3.4680   -0.9308   32.8992 C   0  0  0  0  0  0  0  0  0  0  0  0
   -3.6955    0.1762   32.6089 O   0  0  0  0  0  0  0  0  0  0  0  0
   -2.1855   -1.6715   32.4876 C   0  0  0  0  0  0  0  0  0  0  0  0
   -1.4806   -1.0108   31.3521 C   0  0  0  0  0  0  0  0  0  0  0  0
   -1.4096   -1.4168   29.9966 C   0  0  0  0  0  0  0  0  0  0  0  0
   -0.6283   -0.4639   29.3984 C   0  0  0  0  0  0  0  0  0  0  0  0
   -0.2340    0.4424   30.3246 O   0  0  0  0  0  0  0  0  0  0  0  0
   -0.7506    0.0931   31.5601 N   0  0  0  0  0  0  0  0  0  0  0  0
   -9.9554    1.7037   34.6452 N   0  0  0  0  0  0  0  0  0  0  0  0
  -11.1360    2.0135   35.1574 N   0  0  0  0  0  0  0  0  0  0  0  0
  1  2  1  0
  2  3  1  0
  2  4  1  0
  4  5  1  0
  5  6  2  0
  6  7  1  0
  7  8  1  0
  8  9  2  0
  8 10  2  0
  8 11  1  0
 11 12  1  0
 12 13  1  0
 13 14  1  0
 14 15  2  0
 14 16  1  0
 16 17  1  0
 17 18  1  0
 18 19  2  0
 19 20  1  0
 20 21  1  0
  6 22  1  0
 22 23  2  0
 23  4  1  0
 21 17  2  0
M  END
>  <HIPPO Pose ID>  (45) 
3144

>  <scratch_subdir>  (45) 
/opt/xchem-fragalysis-2/maxwin/BulkDock/SCRATCH/350565/C1708-P70

>  <ref_mols>  (45) 
7goy-a,7gpm-a

>  <original SMILES>  (45) 
CC(C)n1cc(CS(=O)(=O)CCNC(=O)Cc2ccon2)nn1

>  <HIPPO Compound ID>  (45) 
1708

>  <original ID>  (45) 
BNTXOLUWLNJNAP-UHFFFAOYSA-N

>  <alias>  (45) 
None

>  <fragmenstein_runtime>  (45) 
4.73055

>  <score_inspiration>  (45) 
0.279059

>  <name>  (45) 
BNTXOLUWLNJNAP-UHFFFAOYSA-N

>  <fragmenstein_mode>  (45) 
expansion

>  <fragmenstein_error>  (45) 
None

>  <fragmenstein_outcome>  (45) 
acceptable

>  <inchikey>  (45) 
BNTXOLUWLNJNAP-UHFFFAOYSA-N

>  <tags>  (45) 
Fragmenstein placed

>  <SLURM_JOB_ID>  (45) 
350565

>  <energy_score>  (45) 
-15.873983

>  <ref_pdb>  (45) 
7gpm-a

>  <distance_score>  (45) 
0.798807

>  <csv_name>  (45) 
D68EV3C_iter1_knitwork_pure_split1000_batch004.csv

$$$$
3411
     RDKit          3D

 18 19  0  0  0  0  0  0  0  0999 V2000
   -2.1422   -0.6007   31.5899 C   0  0  0  0  0  0  0  0  0  0  0  0
   -0.7936   -1.2640   31.7305 C   0  0  0  0  0  0  0  0  0  0  0  0
   -0.7969   -2.9816   31.2380 S   0  0  0  0  0  0  0  0  0  0  0  0
   -2.0360   -3.5791   31.6883 O   0  0  0  0  0  0  0  0  0  0  0  0
    0.4784   -3.5483   31.6222 O   0  0  0  0  0  0  0  0  0  0  0  0
   -0.8561   -2.9827   29.5855 N   0  0  0  0  0  0  0  0  0  0  0  0
    0.2508   -2.3931   28.8199 C   0  0  0  0  0  0  0  0  0  0  0  0
   -0.0764   -0.9926   28.3592 C   0  0  0  0  0  0  0  0  0  0  0  0
    0.9239   -0.0439   28.2079 C   0  0  0  0  0  0  0  0  0  0  0  0
    0.5668    1.2573   27.8511 C   0  0  0  0  0  0  0  0  0  0  0  0
   -0.7660    1.5993   27.6163 C   0  0  0  0  0  0  0  0  0  0  0  0
   -1.2017    2.8798   27.3054 N   0  0  0  0  0  0  0  0  0  0  0  0
   -1.9676    2.9883   26.0458 C   0  0  0  0  0  0  0  0  0  0  0  0
   -1.3653    4.2022   25.3266 C   0  0  0  0  0  0  0  0  0  0  0  0
   -0.0196    4.4176   26.0096 C   0  0  0  0  0  0  0  0  0  0  0  0
   -0.3376    4.0512   27.4454 C   0  0  0  0  0  0  0  0  0  0  0  0
   -1.6800    0.5527   27.7502 C   0  0  0  0  0  0  0  0  0  0  0  0
   -1.3818   -0.7110   28.1347 N   0  0  0  0  0  0  0  0  0  0  0  0
  1  2  1  0
  2  3  1  0
  3  4  2  0
  3  5  2  0
  3  6  1  0
  6  7  1  0
  7  8  1  0
  8  9  2  0
  9 10  1  0
 10 11  2  0
 11 12  1  0
 12 13  1  0
 13 14  1  0
 14 15  1  0
 15 16  1  0
 11 17  1  0
 17 18  2  0
 18  8  1  0
 16 12  1  0
M  END
>  <HIPPO Pose ID>  (46) 
3411

>  <scratch_subdir>  (46) 
/opt/xchem-fragalysis-2/maxwin/BulkDock/SCRATCH/350565/C1770-P53

>  <ref_mols>  (46) 
7gp9-a,7gpf-a

>  <original SMILES>  (46) 
CCS(=O)(=O)NCc1ccc(N2CCCC2)cn1

>  <HIPPO Compound ID>  (46) 
1770

>  <original ID>  (46) 
BENPSJZTLHJTBL-UHFFFAOYSA-N

>  <alias>  (46) 
None

>  <fragmenstein_runtime>  (46) 
4.729953

>  <score_inspiration>  (46) 
0.807252

>  <name>  (46) 
BENPSJZTLHJTBL-UHFFFAOYSA-N

>  <fragmenstein_mode>  (46) 
expansion

>  <fragmenstein_error>  (46) 
None

>  <fragmenstein_outcome>  (46) 
acceptable

>  <inchikey>  (46) 
BENPSJZTLHJTBL-UHFFFAOYSA-N

>  <tags>  (46) 
Fragmenstein placed

>  <SLURM_JOB_ID>  (46) 
350565

>  <energy_score>  (46) 
-51.205294

>  <ref_pdb>  (46) 
7gpf-a

>  <distance_score>  (46) 
0.945919

>  <csv_name>  (46) 
D68EV3C_iter1_knitwork_pure_split1000_batch004.csv

$$$$
3478
     RDKit          3D

 17 17  0  0  0  0  0  0  0  0999 V2000
   -2.1777   -0.5369   31.8989 C   0  0  0  0  0  0  0  0  0  0  0  0
   -0.9300   -1.3713   32.0800 C   0  0  0  0  0  0  0  0  0  0  0  0
   -0.9853   -2.9020   31.1653 S   0  0  0  0  0  0  0  0  0  0  0  0
   -2.1966   -3.6019   31.5375 O   0  0  0  0  0  0  0  0  0  0  0  0
    0.3024   -3.5496   31.2707 O   0  0  0  0  0  0  0  0  0  0  0  0
   -1.2051   -2.3899   29.5853 N   0  0  0  0  0  0  0  0  0  0  0  0
   -0.0521   -1.9407   28.7940 C   0  0  0  0  0  0  0  0  0  0  0  0
   -0.0018   -0.4191   28.6969 C   0  0  1  0  0  0  0  0  0  0  0  0
    1.3262    0.0514   28.1241 C   0  0  0  0  0  0  0  0  0  0  0  0
    1.0211    1.4736   27.7064 C   0  0  0  0  0  0  0  0  0  0  0  0
   -0.3455    1.3965   27.1267 N   0  0  0  0  0  0  0  0  0  0  0  0
   -1.1116    2.9059   27.0375 S   0  0  0  0  0  0  0  0  0  0  0  0
   -0.1370    3.8280   26.4908 O   0  0  0  0  0  0  0  0  0  0  0  0
   -1.7146    3.1610   28.3190 O   0  0  0  0  0  0  0  0  0  0  0  0
   -2.4019    2.7167   25.8277 C   0  0  0  0  0  0  0  0  0  0  0  0
   -3.4577    1.7396   26.2517 C   0  0  0  0  0  0  0  0  0  0  0  0
   -1.0400    0.2254   27.7655 C   0  0  0  0  0  0  0  0  0  0  0  0
  1  2  1  0
  2  3  1  0
  3  4  2  0
  3  5  2  0
  3  6  1  0
  6  7  1  0
  8  7  1  6
  8  9  1  0
  9 10  1  0
 10 11  1  0
 11 12  1  0
 12 13  2  0
 12 14  2  0
 12 15  1  0
 15 16  1  0
 11 17  1  0
 17  8  1  0
M  END
>  <HIPPO Pose ID>  (47) 
3478

>  <scratch_subdir>  (47) 
/opt/xchem-fragalysis-2/maxwin/BulkDock/SCRATCH/350565/C1781-P13

>  <ref_mols>  (47) 
7gp9-a,7gpf-a

>  <original SMILES>  (47) 
CCS(=O)(=O)NC[C@H]1CCN(S(=O)(=O)CC)C1

>  <HIPPO Compound ID>  (47) 
1781

>  <original ID>  (47) 
QURMRKRULHMCEH-SECBINFHSA-N

>  <alias>  (47) 
None

>  <fragmenstein_runtime>  (47) 
1.91992

>  <score_inspiration>  (47) 
0.639777

>  <name>  (47) 
QURMRKRULHMCEH-SECBINFHSA-N

>  <fragmenstein_mode>  (47) 
expansion

>  <fragmenstein_error>  (47) 
None

>  <fragmenstein_outcome>  (47) 
acceptable

>  <inchikey>  (47) 
QURMRKRULHMCEH-SECBINFHSA-N

>  <tags>  (47) 
Fragmenstein placed

>  <SLURM_JOB_ID>  (47) 
350565

>  <energy_score>  (47) 
-45.602954

>  <ref_pdb>  (47) 
7gp9-a

>  <distance_score>  (47) 
0.867474

>  <csv_name>  (47) 
D68EV3C_iter1_knitwork_pure_split1000_batch004.csv

$$$$
3485
     RDKit          3D

 17 17  0  0  0  0  0  0  0  0999 V2000
   -2.0796   -0.4460   31.8276 C   0  0  0  0  0  0  0  0  0  0  0  0
   -0.8369   -1.2872   32.0146 C   0  0  0  0  0  0  0  0  0  0  0  0
   -0.9270   -2.8491   31.1586 S   0  0  0  0  0  0  0  0  0  0  0  0
   -2.1604   -3.4966   31.5501 O   0  0  0  0  0  0  0  0  0  0  0  0
    0.3398   -3.5304   31.2967 O   0  0  0  0  0  0  0  0  0  0  0  0
   -1.1261   -2.4062   29.5601 N   0  0  0  0  0  0  0  0  0  0  0  0
    0.0294   -2.0005   28.7538 C   0  0  0  0  0  0  0  0  0  0  0  0
    0.0667   -0.4874   28.5929 C   0  0  1  0  0  0  0  0  0  0  0  0
    1.3725   -0.0150   27.9774 C   0  0  0  0  0  0  0  0  0  0  0  0
    1.0394    1.4050   27.5679 C   0  0  0  0  0  0  0  0  0  0  0  0
   -0.3565    1.3269   27.0575 N   0  0  0  0  0  0  0  0  0  0  0  0
   -1.1822    2.8081   27.1470 S   0  0  0  0  0  0  0  0  0  0  0  0
   -0.2599    3.8221   26.6769 O   0  0  0  0  0  0  0  0  0  0  0  0
   -1.7619    2.8898   28.4642 O   0  0  0  0  0  0  0  0  0  0  0  0
   -2.4804    2.6581   25.9380 C   0  0  0  0  0  0  0  0  0  0  0  0
   -3.5553    1.6973   26.3609 C   0  0  0  0  0  0  0  0  0  0  0  0
   -0.9907    0.1001   27.6526 C   0  0  0  0  0  0  0  0  0  0  0  0
  1  2  1  0
  2  3  1  0
  3  4  2  0
  3  5  2  0
  3  6  1  0
  6  7  1  0
  8  7  1  6
  8  9  1  0
  9 10  1  0
 10 11  1  0
 11 12  1  0
 12 13  2  0
 12 14  2  0
 12 15  1  0
 15 16  1  0
 11 17  1  0
 17  8  1  0
M  END
>  <HIPPO Pose ID>  (48) 
3485

>  <scratch_subdir>  (48) 
/opt/xchem-fragalysis-2/maxwin/BulkDock/SCRATCH/350565/C1781-P53

>  <ref_mols>  (48) 
7gp9-a,7gpf-a

>  <original SMILES>  (48) 
CCS(=O)(=O)NC[C@H]1CCN(S(=O)(=O)CC)C1

>  <HIPPO Compound ID>  (48) 
1781

>  <original ID>  (48) 
QURMRKRULHMCEH-SECBINFHSA-N

>  <alias>  (48) 
None

>  <fragmenstein_runtime>  (48) 
2.225343

>  <score_inspiration>  (48) 
0.663695

>  <name>  (48) 
QURMRKRULHMCEH-SECBINFHSA-N

>  <fragmenstein_mode>  (48) 
expansion

>  <fragmenstein_error>  (48) 
None

>  <fragmenstein_outcome>  (48) 
acceptable

>  <inchikey>  (48) 
QURMRKRULHMCEH-SECBINFHSA-N

>  <tags>  (48) 
Fragmenstein placed

>  <SLURM_JOB_ID>  (48) 
350565

>  <energy_score>  (48) 
-46.503205

>  <ref_pdb>  (48) 
7gpf-a

>  <distance_score>  (48) 
0.836716

>  <csv_name>  (48) 
D68EV3C_iter1_knitwork_pure_split1000_batch004.csv

$$$$
3578
     RDKit          3D

 18 20  0  0  0  0  0  0  0  0999 V2000
   -1.5609   -1.2127   30.2355 C   0  0  0  0  0  0  0  0  0  0  0  0
   -1.5216   -0.8684   31.6161 C   0  0  0  0  0  0  0  0  0  0  0  0
   -2.3424   -1.4050   32.7840 C   0  0  0  0  0  0  0  0  0  0  0  0
   -2.1616   -0.5534   34.0552 C   0  0  0  0  0  0  0  0  0  0  0  0
   -3.1874   -0.8640   35.1355 C   0  0  0  0  0  0  0  0  0  0  0  0
   -4.5335   -0.6260   34.6220 N   0  0  0  0  0  0  0  0  0  0  0  0
   -4.8270   -1.5864   33.5725 C   0  0  0  0  0  0  0  0  0  0  0  0
   -3.8277   -1.4748   32.4180 C   0  0  0  0  0  0  0  0  0  0  0  0
   -0.6144    0.0967   31.8211 N   0  0  0  0  0  0  0  0  0  0  0  0
   -0.0793    0.4032   30.5920 O   0  0  0  0  0  0  0  0  0  0  0  0
   -0.6646   -0.3567   29.6318 C   0  0  0  0  0  0  0  0  0  0  0  0
   -0.1947   -0.1331   28.2334 C   0  0  0  0  0  0  0  0  0  0  0  0
   -0.6635    1.0894   27.5804 N   0  0  0  0  0  0  0  0  0  0  0  0
   -2.1099    1.1955   27.4300 C   0  0  0  0  0  0  0  0  0  0  0  0
   -2.5219    2.3260   26.4526 C   0  0  0  0  0  0  0  0  0  0  0  0
   -1.5766    3.4525   26.3424 N   0  0  0  0  0  0  0  0  0  0  0  0
   -0.8501    3.6213   27.6051 C   0  0  0  0  0  0  0  0  0  0  0  0
   -0.0726    2.3497   28.0503 C   0  0  0  0  0  0  0  0  0  0  0  0
  1  2  1  0
  2  3  1  0
  3  4  1  0
  4  5  1  0
  5  6  1  0
  6  7  1  0
  7  8  1  0
  2  9  2  0
  9 10  1  0
 10 11  1  0
 11 12  1  0
 12 13  1  0
 13 14  1  0
 14 15  1  0
 15 16  1  0
 16 17  1  0
 17 18  1  0
 11  1  2  0
 18 13  1  0
  8  3  1  0
M  END
>  <HIPPO Pose ID>  (49) 
3578

>  <scratch_subdir>  (49) 
/opt/xchem-fragalysis-2/maxwin/BulkDock/SCRATCH/350564/C3324-P44

>  <ref_mols>  (49) 
7gp2-a,7goy-a

>  <original SMILES>  (49) 
c1c(C2CCNCC2)noc1CN1CCNCC1

>  <HIPPO Compound ID>  (49) 
3324

>  <original ID>  (49) 
FOITVNVGRQLPMG-UHFFFAOYSA-N

>  <alias>  (49) 
None

>  <fragmenstein_runtime>  (49) 
2.450008

>  <score_inspiration>  (49) 
0.479716

>  <name>  (49) 
FOITVNVGRQLPMG-UHFFFAOYSA-N

>  <fragmenstein_mode>  (49) 
expansion

>  <fragmenstein_error>  (49) 
None

>  <fragmenstein_outcome>  (49) 
acceptable

>  <inchikey>  (49) 
FOITVNVGRQLPMG-UHFFFAOYSA-N

>  <tags>  (49) 
Fragmenstein placed

>  <SLURM_JOB_ID>  (49) 
350564

>  <energy_score>  (49) 
-44.138371

>  <ref_pdb>  (49) 
7gp2-a

>  <distance_score>  (49) 
0.999513

>  <csv_name>  (49) 
D68EV3C_iter1_knitwork_pure_split1000_batch003.csv

$$$$
3582
     RDKit          3D

 18 20  0  0  0  0  0  0  0  0999 V2000
   -1.5975   -1.1401   30.1584 C   0  0  0  0  0  0  0  0  0  0  0  0
   -1.4495   -0.8512   31.5428 C   0  0  0  0  0  0  0  0  0  0  0  0
   -2.2685   -1.3212   32.7353 C   0  0  0  0  0  0  0  0  0  0  0  0
   -2.0953   -0.3788   33.9445 C   0  0  0  0  0  0  0  0  0  0  0  0
   -3.1255   -0.5964   35.0416 C   0  0  0  0  0  0  0  0  0  0  0  0
   -4.4685   -0.4233   34.4944 N   0  0  0  0  0  0  0  0  0  0  0  0
   -4.7281   -1.4919   33.5453 C   0  0  0  0  0  0  0  0  0  0  0  0
   -3.7512   -1.4392   32.3702 C   0  0  0  0  0  0  0  0  0  0  0  0
   -0.4255   -0.0072   31.7304 N   0  0  0  0  0  0  0  0  0  0  0  0
    0.0728    0.2892   30.4832 O   0  0  0  0  0  0  0  0  0  0  0  0
   -0.6445   -0.3655   29.5352 C   0  0  0  0  0  0  0  0  0  0  0  0
   -0.2352   -0.1336   28.1225 C   0  0  0  0  0  0  0  0  0  0  0  0
   -0.7343    1.0948   27.5065 N   0  0  0  0  0  0  0  0  0  0  0  0
   -2.1848    1.1816   27.3768 C   0  0  0  0  0  0  0  0  0  0  0  0
   -2.6177    2.3271   26.4256 C   0  0  0  0  0  0  0  0  0  0  0  0
   -1.6837    3.4640   26.3226 N   0  0  0  0  0  0  0  0  0  0  0  0
   -0.9452    3.6220   27.5792 C   0  0  0  0  0  0  0  0  0  0  0  0
   -0.1549    2.3512   28.0008 C   0  0  0  0  0  0  0  0  0  0  0  0
  1  2  1  0
  2  3  1  0
  3  4  1  0
  4  5  1  0
  5  6  1  0
  6  7  1  0
  7  8  1  0
  2  9  2  0
  9 10  1  0
 10 11  1  0
 11 12  1  0
 12 13  1  0
 13 14  1  0
 14 15  1  0
 15 16  1  0
 16 17  1  0
 17 18  1  0
 11  1  2  0
 18 13  1  0
  8  3  1  0
M  END
>  <HIPPO Pose ID>  (50) 
3582

>  <scratch_subdir>  (50) 
/opt/xchem-fragalysis-2/maxwin/BulkDock/SCRATCH/350564/C3324-P59

>  <ref_mols>  (50) 
7gp2-a,7goy-a

>  <original SMILES>  (50) 
c1c(C2CCNCC2)noc1CN1CCNCC1

>  <HIPPO Compound ID>  (50) 
3324

>  <original ID>  (50) 
FOITVNVGRQLPMG-UHFFFAOYSA-N

>  <alias>  (50) 
None

>  <fragmenstein_runtime>  (50) 
2.488175

>  <score_inspiration>  (50) 
0.481008

>  <name>  (50) 
FOITVNVGRQLPMG-UHFFFAOYSA-N

>  <fragmenstein_mode>  (50) 
expansion

>  <fragmenstein_error>  (50) 
None

>  <fragmenstein_outcome>  (50) 
acceptable

>  <inchikey>  (50) 
FOITVNVGRQLPMG-UHFFFAOYSA-N

>  <tags>  (50) 
Fragmenstein placed

>  <SLURM_JOB_ID>  (50) 
350564

>  <energy_score>  (50) 
-44.79426

>  <ref_pdb>  (50) 
7goy-a

>  <distance_score>  (50) 
0.995619

>  <csv_name>  (50) 
D68EV3C_iter1_knitwork_pure_split1000_batch003.csv

$$$$
3597
     RDKit          3D

 16 16  0  0  0  0  0  0  0  0999 V2000
   -2.2125   -0.5645   31.9123 C   0  0  0  0  0  0  0  0  0  0  0  0
   -0.9460   -1.3745   32.0734 C   0  0  0  0  0  0  0  0  0  0  0  0
   -0.9911   -2.9144   31.1731 S   0  0  0  0  0  0  0  0  0  0  0  0
   -2.1890   -3.6252   31.5656 O   0  0  0  0  0  0  0  0  0  0  0  0
    0.3078   -3.5408   31.2715 O   0  0  0  0  0  0  0  0  0  0  0  0
   -1.2338   -2.4220   29.5923 N   0  0  0  0  0  0  0  0  0  0  0  0
   -0.1040   -1.9348   28.7928 C   0  0  0  0  0  0  0  0  0  0  0  0
   -0.1312   -0.4150   28.6786 C   0  0  1  0  0  0  0  0  0  0  0  0
    1.1748    0.1228   28.1116 C   0  0  0  0  0  0  0  0  0  0  0  0
    0.7922    1.5222   27.6788 C   0  0  0  0  0  0  0  0  0  0  0  0
   -0.5581    1.3527   27.0906 N   0  0  0  0  0  0  0  0  0  0  0  0
   -1.4269    2.8006   26.9526 S   0  0  0  0  0  0  0  0  0  0  0  0
   -2.7928    2.3584   25.9124 C   0  0  0  0  0  0  0  0  0  0  0  0
   -0.5688    3.7271   26.2437 O   0  0  0  0  0  0  0  0  0  0  0  0
   -1.9287    3.1245   28.2612 O   0  0  0  0  0  0  0  0  0  0  0  0
   -1.2018    0.1651   27.7410 C   0  0  0  0  0  0  0  0  0  0  0  0
  1  2  1  0
  2  3  1  0
  3  4  2  0
  3  5  2  0
  3  6  1  0
  6  7  1  0
  8  7  1  6
  8  9  1  0
  9 10  1  0
 10 11  1  0
 11 12  1  0
 12 13  1  0
 12 14  2  0
 12 15  2  0
 11 16  1  0
 16  8  1  0
M  END
>  <HIPPO Pose ID>  (51) 
3597

>  <scratch_subdir>  (51) 
/opt/xchem-fragalysis-2/maxwin/BulkDock/SCRATCH/350565/C1807-P13

>  <ref_mols>  (51) 
7gp9-a,7gpf-a

>  <original SMILES>  (51) 
CCS(=O)(=O)NC[C@H]1CCN(S(C)(=O)=O)C1

>  <HIPPO Compound ID>  (51) 
1807

>  <original ID>  (51) 
QSJLQFDQGYUYAC-MRVPVSSYSA-N

>  <alias>  (51) 
None

>  <fragmenstein_runtime>  (51) 
1.879286

>  <score_inspiration>  (51) 
0.684323

>  <name>  (51) 
QSJLQFDQGYUYAC-MRVPVSSYSA-N

>  <fragmenstein_mode>  (51) 
expansion

>  <fragmenstein_error>  (51) 
None

>  <fragmenstein_outcome>  (51) 
acceptable

>  <inchikey>  (51) 
QSJLQFDQGYUYAC-MRVPVSSYSA-N

>  <tags>  (51) 
Fragmenstein placed

>  <SLURM_JOB_ID>  (51) 
350565

>  <energy_score>  (51) 
-53.315645

>  <ref_pdb>  (51) 
7gp9-a

>  <distance_score>  (51) 
0.75317

>  <csv_name>  (51) 
D68EV3C_iter1_knitwork_pure_split1000_batch004.csv

$$$$
3605
     RDKit          3D

 16 16  0  0  0  0  0  0  0  0999 V2000
   -2.1231   -0.4714   31.8368 C   0  0  0  0  0  0  0  0  0  0  0  0
   -0.8567   -1.2818   32.0000 C   0  0  0  0  0  0  0  0  0  0  0  0
   -0.9296   -2.8529   31.1592 S   0  0  0  0  0  0  0  0  0  0  0  0
   -2.1462   -3.5169   31.5731 O   0  0  0  0  0  0  0  0  0  0  0  0
    0.3526   -3.5069   31.2896 O   0  0  0  0  0  0  0  0  0  0  0  0
   -1.1548   -2.4295   29.5608 N   0  0  0  0  0  0  0  0  0  0  0  0
   -0.0250   -1.9829   28.7431 C   0  0  0  0  0  0  0  0  0  0  0  0
   -0.0675   -0.4728   28.5638 C   0  0  1  0  0  0  0  0  0  0  0  0
    1.2276    0.0665   27.9790 C   0  0  0  0  0  0  0  0  0  0  0  0
    0.8276    1.4661   27.5576 C   0  0  0  0  0  0  0  0  0  0  0  0
   -0.5474    1.3075   27.0181 N   0  0  0  0  0  0  0  0  0  0  0  0
   -1.4778    2.7266   27.0984 S   0  0  0  0  0  0  0  0  0  0  0  0
   -2.7828    2.3889   25.9497 C   0  0  0  0  0  0  0  0  0  0  0  0
   -0.6502    3.7944   26.5758 O   0  0  0  0  0  0  0  0  0  0  0  0
   -2.0279    2.7901   28.4281 O   0  0  0  0  0  0  0  0  0  0  0  0
   -1.1313    0.0470   27.5906 C   0  0  0  0  0  0  0  0  0  0  0  0
  1  2  1  0
  2  3  1  0
  3  4  2  0
  3  5  2  0
  3  6  1  0
  6  7  1  0
  8  7  1  6
  8  9  1  0
  9 10  1  0
 10 11  1  0
 11 12  1  0
 12 13  1  0
 12 14  2  0
 12 15  2  0
 11 16  1  0
 16  8  1  0
M  END
>  <HIPPO Pose ID>  (52) 
3605

>  <scratch_subdir>  (52) 
/opt/xchem-fragalysis-2/maxwin/BulkDock/SCRATCH/350565/C1807-P53

>  <ref_mols>  (52) 
7gp9-a,7gpf-a

>  <original SMILES>  (52) 
CCS(=O)(=O)NC[C@H]1CCN(S(C)(=O)=O)C1

>  <HIPPO Compound ID>  (52) 
1807

>  <original ID>  (52) 
QSJLQFDQGYUYAC-MRVPVSSYSA-N

>  <alias>  (52) 
None

>  <fragmenstein_runtime>  (52) 
1.915716

>  <score_inspiration>  (52) 
0.715363

>  <name>  (52) 
QSJLQFDQGYUYAC-MRVPVSSYSA-N

>  <fragmenstein_mode>  (52) 
expansion

>  <fragmenstein_error>  (52) 
None

>  <fragmenstein_outcome>  (52) 
acceptable

>  <inchikey>  (52) 
QSJLQFDQGYUYAC-MRVPVSSYSA-N

>  <tags>  (52) 
Fragmenstein placed

>  <SLURM_JOB_ID>  (52) 
350565

>  <energy_score>  (52) 
-53.840964

>  <ref_pdb>  (52) 
7gpf-a

>  <distance_score>  (52) 
0.724988

>  <csv_name>  (52) 
D68EV3C_iter1_knitwork_pure_split1000_batch004.csv

$$$$
3633
     RDKit          3D

 16 16  0  0  0  0  0  0  0  0999 V2000
   -2.2276   -0.6013   31.8894 C   0  0  0  0  0  0  0  0  0  0  0  0
   -0.9702   -1.4123   32.1095 C   0  0  0  0  0  0  0  0  0  0  0  0
   -0.9656   -2.9499   31.2029 S   0  0  0  0  0  0  0  0  0  0  0  0
   -2.1648   -3.6761   31.5649 O   0  0  0  0  0  0  0  0  0  0  0  0
    0.3362   -3.5624   31.3468 O   0  0  0  0  0  0  0  0  0  0  0  0
   -1.1634   -2.4802   29.6169 N   0  0  0  0  0  0  0  0  0  0  0  0
   -0.0314   -1.9820   28.8298 C   0  0  0  0  0  0  0  0  0  0  0  0
   -0.0072   -0.4607   28.8135 C   0  0  1  0  0  0  0  0  0  0  0  0
    1.3151    0.1020   28.3161 C   0  0  0  0  0  0  0  0  0  0  0  0
    0.9717    1.5174   27.8734 C   0  0  0  0  0  0  0  0  0  0  0  0
   -0.4932    1.5911   27.8538 N   0  0  0  0  0  0  0  0  0  0  0  0
   -0.9849    2.4275   26.7406 C   0  0  0  0  0  0  0  0  0  0  0  0
   -2.4945    2.6029   26.5592 C   0  0  0  0  0  0  0  0  0  0  0  0
   -3.1324    1.4088   26.5689 F   0  0  0  0  0  0  0  0  0  0  0  0
   -2.9691    3.3585   27.5685 F   0  0  0  0  0  0  0  0  0  0  0  0
   -1.0117    0.2138   27.8860 C   0  0  0  0  0  0  0  0  0  0  0  0
  1  2  1  0
  2  3  1  0
  3  4  2  0
  3  5  2  0
  3  6  1  0
  6  7  1  0
  8  7  1  6
  8  9  1  0
  9 10  1  0
 10 11  1  0
 11 12  1  0
 12 13  1  0
 13 14  1  0
 13 15  1  0
 11 16  1  0
 16  8  1  0
M  END
>  <HIPPO Pose ID>  (53) 
3633

>  <scratch_subdir>  (53) 
/opt/xchem-fragalysis-2/maxwin/BulkDock/SCRATCH/350565/C1811-P13

>  <ref_mols>  (53) 
7gp9-a,7gpf-a

>  <original SMILES>  (53) 
CCS(=O)(=O)NC[C@H]1CCN(CC(F)F)C1

>  <HIPPO Compound ID>  (53) 
1811

>  <original ID>  (53) 
SUYQYCNUWSGNEK-MRVPVSSYSA-N

>  <alias>  (53) 
None

>  <fragmenstein_runtime>  (53) 
2.916192

>  <score_inspiration>  (53) 
0.722529

>  <name>  (53) 
SUYQYCNUWSGNEK-MRVPVSSYSA-N

>  <fragmenstein_mode>  (53) 
expansion

>  <fragmenstein_error>  (53) 
None

>  <fragmenstein_outcome>  (53) 
acceptable

>  <inchikey>  (53) 
SUYQYCNUWSGNEK-MRVPVSSYSA-N

>  <tags>  (53) 
Fragmenstein placed

>  <SLURM_JOB_ID>  (53) 
350565

>  <energy_score>  (53) 
-34.615606

>  <ref_pdb>  (53) 
7gp9-a

>  <distance_score>  (53) 
0.898755

>  <csv_name>  (53) 
D68EV3C_iter1_knitwork_pure_split1000_batch004.csv

$$$$
3638
     RDKit          3D

 16 16  0  0  0  0  0  0  0  0999 V2000
   -2.1266   -0.5017   31.8261 C   0  0  0  0  0  0  0  0  0  0  0  0
   -0.8673   -1.3122   32.0391 C   0  0  0  0  0  0  0  0  0  0  0  0
   -0.8966   -2.8772   31.1833 S   0  0  0  0  0  0  0  0  0  0  0  0
   -2.1165   -3.5560   31.5649 O   0  0  0  0  0  0  0  0  0  0  0  0
    0.3870   -3.5202   31.3534 O   0  0  0  0  0  0  0  0  0  0  0  0
   -1.0778   -2.4671   29.5838 N   0  0  0  0  0  0  0  0  0  0  0  0
    0.0493   -1.9937   28.7792 C   0  0  0  0  0  0  0  0  0  0  0  0
    0.0442   -0.4757   28.6926 C   0  0  1  0  0  0  0  0  0  0  0  0
    1.3355    0.0945   28.1244 C   0  0  0  0  0  0  0  0  0  0  0  0
    0.9380    1.4714   27.6069 C   0  0  0  0  0  0  0  0  0  0  0  0
   -0.5228    1.5181   27.6865 N   0  0  0  0  0  0  0  0  0  0  0  0
   -1.1248    2.3245   26.6074 C   0  0  0  0  0  0  0  0  0  0  0  0
   -2.6431    2.5117   26.6439 C   0  0  0  0  0  0  0  0  0  0  0  0
   -3.2710    1.3107   26.6071 F   0  0  0  0  0  0  0  0  0  0  0  0
   -2.9790    3.1308   27.7950 F   0  0  0  0  0  0  0  0  0  0  0  0
   -1.0102    0.1336   27.7771 C   0  0  0  0  0  0  0  0  0  0  0  0
  1  2  1  0
  2  3  1  0
  3  4  2  0
  3  5  2  0
  3  6  1  0
  6  7  1  0
  8  7  1  6
  8  9  1  0
  9 10  1  0
 10 11  1  0
 11 12  1  0
 12 13  1  0
 13 14  1  0
 13 15  1  0
 11 16  1  0
 16  8  1  0
M  END
>  <HIPPO Pose ID>  (54) 
3638

>  <scratch_subdir>  (54) 
/opt/xchem-fragalysis-2/maxwin/BulkDock/SCRATCH/350565/C1811-P53

>  <ref_mols>  (54) 
7gp9-a,7gpf-a

>  <original SMILES>  (54) 
CCS(=O)(=O)NC[C@H]1CCN(CC(F)F)C1

>  <HIPPO Compound ID>  (54) 
1811

>  <original ID>  (54) 
SUYQYCNUWSGNEK-MRVPVSSYSA-N

>  <alias>  (54) 
None

>  <fragmenstein_runtime>  (54) 
2.846397

>  <score_inspiration>  (54) 
0.764815

>  <name>  (54) 
SUYQYCNUWSGNEK-MRVPVSSYSA-N

>  <fragmenstein_mode>  (54) 
expansion

>  <fragmenstein_error>  (54) 
None

>  <fragmenstein_outcome>  (54) 
acceptable

>  <inchikey>  (54) 
SUYQYCNUWSGNEK-MRVPVSSYSA-N

>  <tags>  (54) 
Fragmenstein placed

>  <SLURM_JOB_ID>  (54) 
350565

>  <energy_score>  (54) 
-35.673107

>  <ref_pdb>  (54) 
7gpf-a

>  <distance_score>  (54) 
0.912345

>  <csv_name>  (54) 
D68EV3C_iter1_knitwork_pure_split1000_batch004.csv

$$$$
3838
     RDKit          3D

 21 24  0  0  0  0  0  0  0  0999 V2000
   -1.8383    3.8009   24.2449 C   0  0  0  0  0  0  0  0  0  0  0  0
   -1.9921    2.4557   24.4609 N   0  0  0  0  0  0  0  0  0  0  0  0
   -1.8934    2.3599   25.7718 C   0  0  0  0  0  0  0  0  0  0  0  0
   -1.5991    3.5851   26.2823 N   0  0  0  0  0  0  0  0  0  0  0  0
   -1.5299    4.5208   25.3275 N   0  0  0  0  0  0  0  0  0  0  0  0
   -1.1621    3.7817   27.6431 C   0  0  0  0  0  0  0  0  0  0  0  0
   -0.4026    2.5184   28.0740 C   0  0  0  0  0  0  0  0  0  0  0  0
   -1.1930    1.2841   27.9055 N   0  0  0  0  0  0  0  0  0  0  0  0
   -0.4487    0.0589   28.2413 C   0  0  0  0  0  0  0  0  0  0  0  0
   -0.7643   -0.2950   29.6468 C   0  0  0  0  0  0  0  0  0  0  0  0
   -1.7058   -1.1120   30.2236 C   0  0  0  0  0  0  0  0  0  0  0  0
   -1.7530   -0.6816   31.5706 C   0  0  0  0  0  0  0  0  0  0  0  0
   -2.8473   -0.8610   32.5797 C   0  0  0  0  0  0  0  0  0  0  0  0
   -2.4405   -0.5540   34.0304 C   0  0  0  0  0  0  0  0  0  0  0  0
   -3.3983   -1.1643   35.0580 C   0  0  0  0  0  0  0  0  0  0  0  0
   -4.7809   -1.1879   34.5923 N   0  0  0  0  0  0  0  0  0  0  0  0
   -4.9255   -1.9822   33.3713 C   0  0  0  0  0  0  0  0  0  0  0  0
   -3.6295   -2.1601   32.5395 C   0  0  0  0  0  0  0  0  0  0  0  0
   -0.7530    0.1752   31.8262 N   0  0  0  0  0  0  0  0  0  0  0  0
   -0.1286    0.4074   30.6174 O   0  0  0  0  0  0  0  0  0  0  0  0
   -1.9721    1.1718   26.6625 C   0  0  0  0  0  0  0  0  0  0  0  0
  1  2  1  0
  2  3  2  0
  3  4  1  0
  4  5  1  0
  4  6  1  0
  6  7  1  0
  7  8  1  0
  8  9  1  0
  9 10  1  0
 10 11  2  0
 11 12  1  0
 12 13  1  0
 13 14  1  0
 14 15  1  0
 15 16  1  0
 16 17  1  0
 17 18  1  0
 12 19  2  0
 19 20  1  0
  8 21  1  0
  5  1  2  0
 20 10  1  0
 21  3  1  0
 18 13  1  0
M  END
>  <HIPPO Pose ID>  (55) 
3838

>  <scratch_subdir>  (55) 
/opt/xchem-fragalysis-2/maxwin/BulkDock/SCRATCH/350564/C3360-P44

>  <ref_mols>  (55) 
7gp2-a,7goy-a

>  <original SMILES>  (55) 
c1nc2n(n1)CCN(Cc1cc(C3CCNCC3)no1)C2

>  <HIPPO Compound ID>  (55) 
3360

>  <original ID>  (55) 
XRJYMIJOWMWRJH-UHFFFAOYSA-N

>  <alias>  (55) 
None

>  <fragmenstein_runtime>  (55) 
3.197688

>  <score_inspiration>  (55) 
0.455293

>  <name>  (55) 
XRJYMIJOWMWRJH-UHFFFAOYSA-N

>  <fragmenstein_mode>  (55) 
expansion

>  <fragmenstein_error>  (55) 
None

>  <fragmenstein_outcome>  (55) 
acceptable

>  <inchikey>  (55) 
XRJYMIJOWMWRJH-UHFFFAOYSA-N

>  <tags>  (55) 
Fragmenstein placed

>  <SLURM_JOB_ID>  (55) 
350564

>  <energy_score>  (55) 
-16.787106

>  <ref_pdb>  (55) 
7gp2-a

>  <distance_score>  (55) 
0.920416

>  <csv_name>  (55) 
D68EV3C_iter1_knitwork_pure_split1000_batch003.csv

$$$$
4230
     RDKit          3D

 18 19  0  0  0  0  0  0  0  0999 V2000
   -1.4516    0.7360   27.4724 C   0  0  0  0  0  0  0  0  0  0  0  0
   -0.3651   -0.0715   28.1853 C   0  0  0  0  0  0  0  0  0  0  0  0
    0.9661    0.6804   28.1739 C   0  0  0  0  0  0  0  0  0  0  0  0
   -0.8359   -0.4206   29.5637 C   0  0  0  0  0  0  0  0  0  0  0  0
   -1.6501   -1.5145   29.9253 C   0  0  0  0  0  0  0  0  0  0  0  0
   -1.9559   -1.2950   31.2480 C   0  0  0  0  0  0  0  0  0  0  0  0
   -2.8336   -2.0079   32.1547 C   0  0  0  0  0  0  0  0  0  0  0  0
   -3.2888   -3.0286   31.8261 O   0  0  0  0  0  0  0  0  0  0  0  0
   -3.0683   -1.1747   33.4270 N   0  0  0  0  0  0  0  0  0  0  0  0
   -3.8397   -1.4665   34.6066 C   0  0  0  0  0  0  0  0  0  0  0  0
   -4.6627   -0.2775   35.1176 C   0  0  0  0  0  0  0  0  0  0  0  0
   -5.2024   -0.5964   36.5235 C   0  0  0  0  0  0  0  0  0  0  0  0
   -6.6235   -0.1273   36.7899 C   0  0  0  0  0  0  0  0  0  0  0  0
   -7.7928   -0.9980   35.7237 S   0  0  0  0  0  0  0  0  0  0  0  0
   -7.0088   -0.7033   34.1120 C   0  0  0  0  0  0  0  0  0  0  0  0
   -5.7577    0.1602   34.1377 C   0  0  0  0  0  0  0  0  0  0  0  0
   -1.3005   -0.1794   31.6711 O   0  0  0  0  0  0  0  0  0  0  0  0
   -0.5944    0.3696   30.6190 N   0  0  0  0  0  0  0  0  0  0  0  0
  1  2  1  0
  2  3  1  0
  2  4  1  0
  4  5  1  0
  5  6  2  0
  6  7  1  0
  7  8  2  0
  7  9  1  0
  9 10  1  0
 10 11  1  0
 11 12  1  0
 12 13  1  0
 13 14  1  0
 14 15  1  0
 15 16  1  0
  6 17  1  0
 17 18  1  0
 18  4  2  0
 16 11  1  0
M  END
>  <HIPPO Pose ID>  (56) 
4230

>  <scratch_subdir>  (56) 
/opt/xchem-fragalysis-2/maxwin/BulkDock/SCRATCH/350564/C3436-P59

>  <ref_mols>  (56) 
7goy-a,7gpm-a

>  <original SMILES>  (56) 
CC(C)c1cc(C(=O)NCC2CCSCC2)on1

>  <HIPPO Compound ID>  (56) 
3436

>  <original ID>  (56) 
LRZDTRUHVFMNMK-UHFFFAOYSA-N

>  <alias>  (56) 
None

>  <fragmenstein_runtime>  (56) 
1.686091

>  <score_inspiration>  (56) 
0.55581

>  <name>  (56) 
LRZDTRUHVFMNMK-UHFFFAOYSA-N

>  <fragmenstein_mode>  (56) 
expansion

>  <fragmenstein_error>  (56) 
None

>  <fragmenstein_outcome>  (56) 
acceptable

>  <inchikey>  (56) 
LRZDTRUHVFMNMK-UHFFFAOYSA-N

>  <tags>  (56) 
Fragmenstein placed

>  <SLURM_JOB_ID>  (56) 
350564

>  <energy_score>  (56) 
-22.175539

>  <ref_pdb>  (56) 
7goy-a

>  <distance_score>  (56) 
0.938099

>  <csv_name>  (56) 
D68EV3C_iter1_knitwork_pure_split1000_batch003.csv

$$$$
4232
     RDKit          3D

 18 19  0  0  0  0  0  0  0  0999 V2000
   -1.3025    0.6775   27.5812 C   0  0  0  0  0  0  0  0  0  0  0  0
   -0.2010   -0.1446   28.2582 C   0  0  0  0  0  0  0  0  0  0  0  0
    1.1300    0.6104   28.2368 C   0  0  0  0  0  0  0  0  0  0  0  0
   -0.6452   -0.5020   29.6426 C   0  0  0  0  0  0  0  0  0  0  0  0
   -1.4226   -1.6148   30.0415 C   0  0  0  0  0  0  0  0  0  0  0  0
   -1.7670   -1.3383   31.3451 C   0  0  0  0  0  0  0  0  0  0  0  0
   -2.7145   -1.9459   32.2634 C   0  0  0  0  0  0  0  0  0  0  0  0
   -3.2806   -2.9295   31.9867 O   0  0  0  0  0  0  0  0  0  0  0  0
   -2.8548   -1.0221   33.4944 N   0  0  0  0  0  0  0  0  0  0  0  0
   -3.6532   -1.1653   34.6878 C   0  0  0  0  0  0  0  0  0  0  0  0
   -4.8187   -0.1579   34.6390 C   0  0  0  0  0  0  0  0  0  0  0  0
   -5.3967    0.1668   36.0212 C   0  0  0  0  0  0  0  0  0  0  0  0
   -6.1825   -0.9540   36.6769 C   0  0  0  0  0  0  0  0  0  0  0  0
   -7.5948   -1.4917   35.6822 S   0  0  0  0  0  0  0  0  0  0  0  0
   -6.7199   -1.8014   34.1214 C   0  0  0  0  0  0  0  0  0  0  0  0
   -5.9180   -0.5963   33.6684 C   0  0  0  0  0  0  0  0  0  0  0  0
   -1.1252   -0.1988   31.7314 O   0  0  0  0  0  0  0  0  0  0  0  0
   -0.4314    0.3299   30.6699 N   0  0  0  0  0  0  0  0  0  0  0  0
  1  2  1  0
  2  3  1  0
  2  4  1  0
  4  5  1  0
  5  6  2  0
  6  7  1  0
  7  8  2  0
  7  9  1  0
  9 10  1  0
 10 11  1  0
 11 12  1  0
 12 13  1  0
 13 14  1  0
 14 15  1  0
 15 16  1  0
  6 17  1  0
 17 18  1  0
 18  4  2  0
 16 11  1  0
M  END
>  <HIPPO Pose ID>  (57) 
4232

>  <scratch_subdir>  (57) 
/opt/xchem-fragalysis-2/maxwin/BulkDock/SCRATCH/350564/C3436-P70

>  <ref_mols>  (57) 
7goy-a,7gpm-a

>  <original SMILES>  (57) 
CC(C)c1cc(C(=O)NCC2CCSCC2)on1

>  <HIPPO Compound ID>  (57) 
3436

>  <original ID>  (57) 
LRZDTRUHVFMNMK-UHFFFAOYSA-N

>  <alias>  (57) 
None

>  <fragmenstein_runtime>  (57) 
2.103778

>  <score_inspiration>  (57) 
0.542355

>  <name>  (57) 
LRZDTRUHVFMNMK-UHFFFAOYSA-N

>  <fragmenstein_mode>  (57) 
expansion

>  <fragmenstein_error>  (57) 
None

>  <fragmenstein_outcome>  (57) 
acceptable

>  <inchikey>  (57) 
LRZDTRUHVFMNMK-UHFFFAOYSA-N

>  <tags>  (57) 
Fragmenstein placed

>  <SLURM_JOB_ID>  (57) 
350564

>  <energy_score>  (57) 
-25.918657

>  <ref_pdb>  (57) 
7gpm-a

>  <distance_score>  (57) 
0.925578

>  <csv_name>  (57) 
D68EV3C_iter1_knitwork_pure_split1000_batch003.csv

$$$$
4342
     RDKit          3D

 18 19  0  0  0  0  0  0  0  0999 V2000
    0.8990   -1.0133   27.9929 C   0  0  0  0  0  0  0  0  0  0  0  0
   -0.0335    0.0633   28.5336 C   0  0  0  0  0  0  0  0  0  0  0  0
   -1.1378    0.4675   27.5609 C   0  0  0  0  0  0  0  0  0  0  0  0
   -0.6550   -0.3797   29.8029 C   0  0  0  0  0  0  0  0  0  0  0  0
   -1.4197   -1.4562   30.1743 C   0  0  0  0  0  0  0  0  0  0  0  0
   -1.7816   -1.1776   31.5119 C   0  0  0  0  0  0  0  0  0  0  0  0
   -2.6991   -1.9314   32.3777 C   0  0  0  0  0  0  0  0  0  0  0  0
   -3.2273   -2.9034   32.0043 O   0  0  0  0  0  0  0  0  0  0  0  0
   -2.8538   -1.1548   33.7005 N   0  0  0  0  0  0  0  0  0  0  0  0
   -3.6164   -1.4598   34.8766 C   0  0  0  0  0  0  0  0  0  0  0  0
   -4.7703   -0.4597   35.0587 C   0  0  0  0  0  0  0  0  0  0  0  0
   -5.4006   -0.6527   36.4491 C   0  0  0  0  0  0  0  0  0  0  0  0
   -6.8976   -0.3898   36.4987 C   0  0  0  0  0  0  0  0  0  0  0  0
   -7.8044   -1.6353   35.5414 S   0  0  0  0  0  0  0  0  0  0  0  0
   -6.7382   -1.7239   34.0586 C   0  0  0  0  0  0  0  0  0  0  0  0
   -5.7981   -0.5402   33.9208 C   0  0  0  0  0  0  0  0  0  0  0  0
   -1.2152   -0.0303   31.9332 N   0  0  0  0  0  0  0  0  0  0  0  0
   -0.5097    0.4603   30.8568 O   0  0  0  0  0  0  0  0  0  0  0  0
  1  2  1  0
  2  3  1  0
  2  4  1  0
  4  5  2  0
  5  6  1  0
  6  7  1  0
  7  8  2  0
  7  9  1  0
  9 10  1  0
 10 11  1  0
 11 12  1  0
 12 13  1  0
 13 14  1  0
 14 15  1  0
 15 16  1  0
  6 17  2  0
 17 18  1  0
 18  4  1  0
 16 11  1  0
M  END
>  <HIPPO Pose ID>  (58) 
4342

>  <scratch_subdir>  (58) 
/opt/xchem-fragalysis-2/maxwin/BulkDock/SCRATCH/350564/C3455-P70

>  <ref_mols>  (58) 
7goy-a,7gpm-a

>  <original SMILES>  (58) 
CC(C)c1cc(C(=O)NCC2CCSCC2)no1

>  <HIPPO Compound ID>  (58) 
3455

>  <original ID>  (58) 
MGTRJZQYVKANNY-UHFFFAOYSA-N

>  <alias>  (58) 
None

>  <fragmenstein_runtime>  (58) 
2.711648

>  <score_inspiration>  (58) 
0.538455

>  <name>  (58) 
MGTRJZQYVKANNY-UHFFFAOYSA-N

>  <fragmenstein_mode>  (58) 
expansion

>  <fragmenstein_error>  (58) 
None

>  <fragmenstein_outcome>  (58) 
acceptable

>  <inchikey>  (58) 
MGTRJZQYVKANNY-UHFFFAOYSA-N

>  <tags>  (58) 
Fragmenstein placed

>  <SLURM_JOB_ID>  (58) 
350564

>  <energy_score>  (58) 
-26.284283

>  <ref_pdb>  (58) 
7gpm-a

>  <distance_score>  (58) 
0.931373

>  <csv_name>  (58) 
D68EV3C_iter1_knitwork_pure_split1000_batch003.csv

$$$$
4370
     RDKit          3D

 21 21  0  0  0  0  0  0  0  0999 V2000
  -11.2477   -0.4859   38.3624 C   0  0  0  0  0  0  0  0  0  0  0  0
   -9.9508   -0.1712   37.8690 O   0  0  0  0  0  0  0  0  0  0  0  0
   -8.9378   -0.9179   38.5481 C   0  0  0  0  0  0  0  0  0  0  0  0
   -7.5894   -0.6265   37.9030 C   0  0  0  0  0  0  0  0  0  0  0  0
   -7.3822   -1.4321   36.6223 C   0  0  0  0  0  0  0  0  0  0  0  0
   -8.0955   -2.2851   36.2622 O   0  0  0  0  0  0  0  0  0  0  0  0
   -6.0523   -0.9043   36.0097 N   0  0  0  0  0  0  0  0  0  0  0  0
   -5.3746   -1.2599   34.7651 C   0  0  1  0  0  0  0  0  0  0  0  0
   -5.7051   -0.1844   33.7384 C   0  0  0  0  0  0  0  0  0  0  0  0
   -3.8562   -1.4413   34.9899 C   0  0  0  0  0  0  0  0  0  0  0  0
   -3.0035   -1.2264   33.8422 N   0  0  0  0  0  0  0  0  0  0  0  0
   -2.9256   -1.9788   32.4943 C   0  0  0  0  0  0  0  0  0  0  0  0
   -3.4840   -2.9372   32.1294 O   0  0  0  0  0  0  0  0  0  0  0  0
   -1.9965   -1.2862   31.6144 C   0  0  0  0  0  0  0  0  0  0  0  0
   -1.5816   -1.5363   30.3258 C   0  0  0  0  0  0  0  0  0  0  0  0
   -0.7830   -0.4208   29.9856 C   0  0  0  0  0  0  0  0  0  0  0  0
   -0.1708   -0.0738   28.6665 C   0  0  0  0  0  0  0  0  0  0  0  0
    0.7060   -1.2057   28.1380 C   0  0  0  0  0  0  0  0  0  0  0  0
   -1.2662    0.3291   27.6792 C   0  0  0  0  0  0  0  0  0  0  0  0
   -0.6544    0.4140   31.0235 N   0  0  0  0  0  0  0  0  0  0  0  0
   -1.4138   -0.1280   32.0378 O   0  0  0  0  0  0  0  0  0  0  0  0
  1  2  1  0
  2  3  1  0
  3  4  1  0
  4  5  1  0
  5  6  2  0
  5  7  1  0
  7  8  1  0
  8  9  1  6
  8 10  1  0
 10 11  1  0
 11 12  1  0
 12 13  2  0
 12 14  1  0
 14 15  2  0
 15 16  1  0
 16 17  1  0
 17 18  1  0
 17 19  1  0
 16 20  2  0
 20 21  1  0
 21 14  1  0
M  END
>  <HIPPO Pose ID>  (59) 
4370

>  <scratch_subdir>  (59) 
/opt/xchem-fragalysis-2/maxwin/BulkDock/SCRATCH/350564/C3463-P70

>  <ref_mols>  (59) 
7goy-a,7gpm-a

>  <original SMILES>  (59) 
COCCC(=O)N[C@@H](C)CNC(=O)c1cc(C(C)C)no1

>  <HIPPO Compound ID>  (59) 
3463

>  <original ID>  (59) 
AUFKXIGENGJTLJ-JTQLQIEISA-N

>  <alias>  (59) 
None

>  <fragmenstein_runtime>  (59) 
3.678743

>  <score_inspiration>  (59) 
0.428099

>  <name>  (59) 
AUFKXIGENGJTLJ-JTQLQIEISA-N

>  <fragmenstein_mode>  (59) 
expansion

>  <fragmenstein_error>  (59) 
None

>  <fragmenstein_outcome>  (59) 
acceptable

>  <inchikey>  (59) 
AUFKXIGENGJTLJ-JTQLQIEISA-N

>  <tags>  (59) 
Fragmenstein placed

>  <SLURM_JOB_ID>  (59) 
350564

>  <energy_score>  (59) 
-21.541395

>  <ref_pdb>  (59) 
7gpm-a

>  <distance_score>  (59) 
0.913839

>  <csv_name>  (59) 
D68EV3C_iter1_knitwork_pure_split1000_batch003.csv

$$$$
4450
     RDKit          3D

 15 15  0  0  0  0  0  0  0  0999 V2000
   -7.5114   -0.6786   35.3580 C   0  0  0  0  0  0  0  0  0  0  0  0
   -6.1627   -1.0790   35.5764 O   0  0  0  0  0  0  0  0  0  0  0  0
   -5.3629   -0.7978   34.4284 C   0  0  0  0  0  0  0  0  0  0  0  0
   -3.9105   -1.1617   34.7183 C   0  0  0  0  0  0  0  0  0  0  0  0
   -3.0825   -0.9519   33.5608 N   0  0  0  0  0  0  0  0  0  0  0  0
   -2.9239   -1.7910   32.2779 C   0  0  0  0  0  0  0  0  0  0  0  0
   -3.4951   -2.7434   31.9224 O   0  0  0  0  0  0  0  0  0  0  0  0
   -1.9500   -1.1496   31.4180 C   0  0  0  0  0  0  0  0  0  0  0  0
   -1.6390   -1.3217   30.0901 C   0  0  0  0  0  0  0  0  0  0  0  0
   -0.7578   -0.2551   29.8009 C   0  0  0  0  0  0  0  0  0  0  0  0
   -0.2101    0.1735   28.4813 C   0  0  0  0  0  0  0  0  0  0  0  0
    0.8972   -0.7641   28.0186 C   0  0  0  0  0  0  0  0  0  0  0  0
   -1.3337    0.3209   27.4566 C   0  0  0  0  0  0  0  0  0  0  0  0
   -0.4616    0.4447   30.9026 N   0  0  0  0  0  0  0  0  0  0  0  0
   -1.2129   -0.1150   31.9110 O   0  0  0  0  0  0  0  0  0  0  0  0
  1  2  1  0
  2  3  1  0
  3  4  1  0
  4  5  1  0
  5  6  1  0
  6  7  2  0
  6  8  1  0
  8  9  2  0
  9 10  1  0
 10 11  1  0
 11 12  1  0
 11 13  1  0
 10 14  2  0
 14 15  1  0
 15  8  1  0
M  END
>  <HIPPO Pose ID>  (60) 
4450

>  <scratch_subdir>  (60) 
/opt/xchem-fragalysis-2/maxwin/BulkDock/SCRATCH/350564/C3477-P59

>  <ref_mols>  (60) 
7goy-a,7gpm-a

>  <original SMILES>  (60) 
COCCNC(=O)c1cc(C(C)C)no1

>  <HIPPO Compound ID>  (60) 
3477

>  <original ID>  (60) 
WUIHGYWDCAMLRQ-UHFFFAOYSA-N

>  <alias>  (60) 
None

>  <fragmenstein_runtime>  (60) 
0.997596

>  <score_inspiration>  (60) 
0.694514

>  <name>  (60) 
WUIHGYWDCAMLRQ-UHFFFAOYSA-N

>  <fragmenstein_mode>  (60) 
expansion

>  <fragmenstein_error>  (60) 
None

>  <fragmenstein_outcome>  (60) 
acceptable

>  <inchikey>  (60) 
WUIHGYWDCAMLRQ-UHFFFAOYSA-N

>  <tags>  (60) 
Fragmenstein placed

>  <SLURM_JOB_ID>  (60) 
350564

>  <energy_score>  (60) 
-5.440595

>  <ref_pdb>  (60) 
7goy-a

>  <distance_score>  (60) 
0.836953

>  <csv_name>  (60) 
D68EV3C_iter1_knitwork_pure_split1000_batch003.csv

$$$$
4451
     RDKit          3D

 15 15  0  0  0  0  0  0  0  0999 V2000
   -7.3649   -0.8213   35.3829 C   0  0  0  0  0  0  0  0  0  0  0  0
   -6.0097   -1.1669   35.6357 O   0  0  0  0  0  0  0  0  0  0  0  0
   -5.2253   -1.0688   34.4456 C   0  0  0  0  0  0  0  0  0  0  0  0
   -3.7890   -1.4624   34.7732 C   0  0  0  0  0  0  0  0  0  0  0  0
   -2.9010   -1.2477   33.6626 N   0  0  0  0  0  0  0  0  0  0  0  0
   -2.7688   -2.0036   32.3252 C   0  0  0  0  0  0  0  0  0  0  0  0
   -3.3061   -2.9671   31.9446 O   0  0  0  0  0  0  0  0  0  0  0  0
   -1.8462   -1.2815   31.4711 C   0  0  0  0  0  0  0  0  0  0  0  0
   -1.4455   -1.4795   30.1713 C   0  0  0  0  0  0  0  0  0  0  0  0
   -0.6537   -0.3483   29.8747 C   0  0  0  0  0  0  0  0  0  0  0  0
   -0.0531    0.0512   28.5700 C   0  0  0  0  0  0  0  0  0  0  0  0
    0.8704   -1.0363   28.0294 C   0  0  0  0  0  0  0  0  0  0  0  0
   -1.1636    0.4381   27.5936 C   0  0  0  0  0  0  0  0  0  0  0  0
   -0.5210    0.4479   30.9412 N   0  0  0  0  0  0  0  0  0  0  0  0
   -1.2674   -0.1387   31.9377 O   0  0  0  0  0  0  0  0  0  0  0  0
  1  2  1  0
  2  3  1  0
  3  4  1  0
  4  5  1  0
  5  6  1  0
  6  7  2  0
  6  8  1  0
  8  9  2  0
  9 10  1  0
 10 11  1  0
 11 12  1  0
 11 13  1  0
 10 14  2  0
 14 15  1  0
 15  8  1  0
M  END
>  <HIPPO Pose ID>  (61) 
4451

>  <scratch_subdir>  (61) 
/opt/xchem-fragalysis-2/maxwin/BulkDock/SCRATCH/350564/C3477-P70

>  <ref_mols>  (61) 
7goy-a,7gpm-a

>  <original SMILES>  (61) 
COCCNC(=O)c1cc(C(C)C)no1

>  <HIPPO Compound ID>  (61) 
3477

>  <original ID>  (61) 
WUIHGYWDCAMLRQ-UHFFFAOYSA-N

>  <alias>  (61) 
None

>  <fragmenstein_runtime>  (61) 
1.158048

>  <score_inspiration>  (61) 
0.678937

>  <name>  (61) 
WUIHGYWDCAMLRQ-UHFFFAOYSA-N

>  <fragmenstein_mode>  (61) 
expansion

>  <fragmenstein_error>  (61) 
None

>  <fragmenstein_outcome>  (61) 
acceptable

>  <inchikey>  (61) 
WUIHGYWDCAMLRQ-UHFFFAOYSA-N

>  <tags>  (61) 
Fragmenstein placed

>  <SLURM_JOB_ID>  (61) 
350564

>  <energy_score>  (61) 
-6.127573

>  <ref_pdb>  (61) 
7gpm-a

>  <distance_score>  (61) 
0.819683

>  <csv_name>  (61) 
D68EV3C_iter1_knitwork_pure_split1000_batch003.csv

$$$$
4457
     RDKit          3D

 19 20  0  0  0  0  0  0  0  0999 V2000
   -1.4084    0.6992   27.4723 C   0  0  0  0  0  0  0  0  0  0  0  0
   -0.3374   -0.1593   28.1493 C   0  0  0  0  0  0  0  0  0  0  0  0
    1.0273    0.5291   28.0968 C   0  0  0  0  0  0  0  0  0  0  0  0
   -0.7786   -0.4824   29.5423 C   0  0  0  0  0  0  0  0  0  0  0  0
   -1.6308   -1.5356   29.9418 C   0  0  0  0  0  0  0  0  0  0  0  0
   -1.9028   -1.2713   31.2635 C   0  0  0  0  0  0  0  0  0  0  0  0
   -2.8321   -1.8739   32.1987 C   0  0  0  0  0  0  0  0  0  0  0  0
   -3.3978   -2.8540   31.9181 O   0  0  0  0  0  0  0  0  0  0  0  0
   -2.9602   -0.9669   33.4374 N   0  0  0  0  0  0  0  0  0  0  0  0
   -3.7431   -1.1251   34.6363 C   0  0  0  0  0  0  0  0  0  0  0  0
   -5.2182   -0.8233   34.3835 C   0  0  0  0  0  0  0  0  0  0  0  0
   -5.9338   -0.8749   35.6167 O   0  0  0  0  0  0  0  0  0  0  0  0
   -7.3107   -0.5330   35.4384 C   0  0  0  0  0  0  0  0  0  0  0  0
   -7.8308    0.0295   36.7579 C   0  0  0  0  0  0  0  0  0  0  0  0
   -8.0610   -0.9810   37.9106 C   0  0  0  0  0  0  0  0  0  0  0  0
   -9.5295   -1.0812   37.4509 C   0  0  0  0  0  0  0  0  0  0  0  0
   -9.3541    0.3125   36.8161 C   0  0  0  0  0  0  0  0  0  0  0  0
   -1.1766   -0.1861   31.6520 O   0  0  0  0  0  0  0  0  0  0  0  0
   -0.4749    0.3127   30.5766 N   0  0  0  0  0  0  0  0  0  0  0  0
  1  2  1  0
  2  3  1  0
  2  4  1  0
  4  5  1  0
  5  6  2  0
  6  7  1  0
  7  8  2  0
  7  9  1  0
  9 10  1  0
 10 11  1  0
 11 12  1  0
 12 13  1  0
 13 14  1  0
 14 15  1  0
 15 16  1  0
 16 17  1  0
  6 18  1  0
 18 19  1  0
 19  4  2  0
 17 14  1  0
M  END
>  <HIPPO Pose ID>  (62) 
4457

>  <scratch_subdir>  (62) 
/opt/xchem-fragalysis-2/maxwin/BulkDock/SCRATCH/350564/C3479-P59

>  <ref_mols>  (62) 
7goy-a,7gpm-a

>  <original SMILES>  (62) 
CC(C)c1cc(C(=O)NCCOCC2CCC2)on1

>  <HIPPO Compound ID>  (62) 
3479

>  <original ID>  (62) 
OICONHBQGYXEFI-UHFFFAOYSA-N

>  <alias>  (62) 
None

>  <fragmenstein_runtime>  (62) 
4.160532

>  <score_inspiration>  (62) 
0.561774

>  <name>  (62) 
OICONHBQGYXEFI-UHFFFAOYSA-N

>  <fragmenstein_mode>  (62) 
expansion

>  <fragmenstein_error>  (62) 
None

>  <fragmenstein_outcome>  (62) 
acceptable

>  <inchikey>  (62) 
OICONHBQGYXEFI-UHFFFAOYSA-N

>  <tags>  (62) 
Fragmenstein placed

>  <SLURM_JOB_ID>  (62) 
350564

>  <energy_score>  (62) 
-22.745123

>  <ref_pdb>  (62) 
7goy-a

>  <distance_score>  (62) 
0.768165

>  <csv_name>  (62) 
D68EV3C_iter1_knitwork_pure_split1000_batch003.csv

$$$$
4461
     RDKit          3D

 19 20  0  0  0  0  0  0  0  0999 V2000
   -1.3109    0.7260   27.5534 C   0  0  0  0  0  0  0  0  0  0  0  0
   -0.2048   -0.0813   28.2406 C   0  0  0  0  0  0  0  0  0  0  0  0
    1.1102    0.7008   28.2524 C   0  0  0  0  0  0  0  0  0  0  0  0
   -0.6666   -0.4663   29.6112 C   0  0  0  0  0  0  0  0  0  0  0  0
   -1.3934   -1.6201   29.9831 C   0  0  0  0  0  0  0  0  0  0  0  0
   -1.7785   -1.3754   31.2815 C   0  0  0  0  0  0  0  0  0  0  0  0
   -2.7039   -2.0560   32.1698 C   0  0  0  0  0  0  0  0  0  0  0  0
   -3.2039   -3.0620   31.8534 O   0  0  0  0  0  0  0  0  0  0  0  0
   -2.9231   -1.1806   33.4209 N   0  0  0  0  0  0  0  0  0  0  0  0
   -3.7335   -1.4059   34.5906 C   0  0  0  0  0  0  0  0  0  0  0  0
   -5.2032   -1.0888   34.3229 C   0  0  0  0  0  0  0  0  0  0  0  0
   -5.9036   -1.0002   35.5647 O   0  0  0  0  0  0  0  0  0  0  0  0
   -7.2744   -0.6490   35.3595 C   0  0  0  0  0  0  0  0  0  0  0  0
   -7.8407   -0.1260   36.6752 C   0  0  0  0  0  0  0  0  0  0  0  0
   -8.0912   -1.1634   37.7991 C   0  0  0  0  0  0  0  0  0  0  0  0
   -9.5439   -1.2751   37.2946 C   0  0  0  0  0  0  0  0  0  0  0  0
   -9.3707    0.1298   36.6853 C   0  0  0  0  0  0  0  0  0  0  0  0
   -1.2140   -0.2040   31.6904 O   0  0  0  0  0  0  0  0  0  0  0  0
   -0.5267    0.3713   30.6469 N   0  0  0  0  0  0  0  0  0  0  0  0
  1  2  1  0
  2  3  1  0
  2  4  1  0
  4  5  1  0
  5  6  2  0
  6  7  1  0
  7  8  2  0
  7  9  1  0
  9 10  1  0
 10 11  1  0
 11 12  1  0
 12 13  1  0
 13 14  1  0
 14 15  1  0
 15 16  1  0
 16 17  1  0
  6 18  1  0
 18 19  1  0
 19  4  2  0
 17 14  1  0
M  END
>  <HIPPO Pose ID>  (63) 
4461

>  <scratch_subdir>  (63) 
/opt/xchem-fragalysis-2/maxwin/BulkDock/SCRATCH/350564/C3479-P70

>  <ref_mols>  (63) 
7goy-a,7gpm-a

>  <original SMILES>  (63) 
CC(C)c1cc(C(=O)NCCOCC2CCC2)on1

>  <HIPPO Compound ID>  (63) 
3479

>  <original ID>  (63) 
OICONHBQGYXEFI-UHFFFAOYSA-N

>  <alias>  (63) 
None

>  <fragmenstein_runtime>  (63) 
4.065798

>  <score_inspiration>  (63) 
0.55539

>  <name>  (63) 
OICONHBQGYXEFI-UHFFFAOYSA-N

>  <fragmenstein_mode>  (63) 
expansion

>  <fragmenstein_error>  (63) 
None

>  <fragmenstein_outcome>  (63) 
acceptable

>  <inchikey>  (63) 
OICONHBQGYXEFI-UHFFFAOYSA-N

>  <tags>  (63) 
Fragmenstein placed

>  <SLURM_JOB_ID>  (63) 
350564

>  <energy_score>  (63) 
-22.588615

>  <ref_pdb>  (63) 
7gpm-a

>  <distance_score>  (63) 
0.829117

>  <csv_name>  (63) 
D68EV3C_iter1_knitwork_pure_split1000_batch003.csv

$$$$
4506
     RDKit          3D

 13 13  0  0  0  0  0  0  0  0999 V2000
    0.8705   -0.9463   28.0042 C   0  0  0  0  0  0  0  0  0  0  0  0
   -0.0585    0.1466   28.5252 C   0  0  0  0  0  0  0  0  0  0  0  0
   -1.2113    0.4648   27.5742 C   0  0  0  0  0  0  0  0  0  0  0  0
   -0.5959   -0.2146   29.8665 C   0  0  0  0  0  0  0  0  0  0  0  0
   -1.4355   -1.2957   30.2129 C   0  0  0  0  0  0  0  0  0  0  0  0
   -1.6876   -1.1033   31.5464 C   0  0  0  0  0  0  0  0  0  0  0  0
   -2.5227   -1.7920   32.5508 C   0  0  0  0  0  0  0  0  0  0  0  0
   -3.4937   -0.8492   33.1136 N   0  0  0  0  0  0  0  0  0  0  0  0
   -4.3101   -1.5130   34.1329 C   0  0  0  0  0  0  0  0  0  0  0  0
   -5.4115   -0.5947   34.6504 C   0  0  0  0  0  0  0  0  0  0  0  0
   -6.0836   -1.2477   35.6380 F   0  0  0  0  0  0  0  0  0  0  0  0
   -0.9977   -0.0153   31.9829 O   0  0  0  0  0  0  0  0  0  0  0  0
   -0.3145    0.5489   30.9278 N   0  0  0  0  0  0  0  0  0  0  0  0
  1  2  1  0
  2  3  1  0
  2  4  1  0
  4  5  1  0
  5  6  2  0
  6  7  1  0
  7  8  1  0
  8  9  1  0
  9 10  1  0
 10 11  1  0
  6 12  1  0
 12 13  1  0
 13  4  2  0
M  END
>  <HIPPO Pose ID>  (64) 
4506

>  <scratch_subdir>  (64) 
/opt/xchem-fragalysis-2/maxwin/BulkDock/SCRATCH/350564/C3490-P70

>  <ref_mols>  (64) 
7goy-a,7gpm-a

>  <original SMILES>  (64) 
CC(C)c1cc(CNCCF)on1

>  <HIPPO Compound ID>  (64) 
3490

>  <original ID>  (64) 
PLPDVKBWCDGEQR-UHFFFAOYSA-N

>  <alias>  (64) 
None

>  <fragmenstein_runtime>  (64) 
0.902745

>  <score_inspiration>  (64) 
0.605145

>  <name>  (64) 
PLPDVKBWCDGEQR-UHFFFAOYSA-N

>  <fragmenstein_mode>  (64) 
expansion

>  <fragmenstein_error>  (64) 
None

>  <fragmenstein_outcome>  (64) 
acceptable

>  <inchikey>  (64) 
PLPDVKBWCDGEQR-UHFFFAOYSA-N

>  <tags>  (64) 
Fragmenstein placed

>  <SLURM_JOB_ID>  (64) 
350564

>  <energy_score>  (64) 
-26.90194

>  <ref_pdb>  (64) 
7gpm-a

>  <distance_score>  (64) 
0.962788

>  <csv_name>  (64) 
D68EV3C_iter1_knitwork_pure_split1000_batch003.csv

$$$$
4529
     RDKit          3D

 22 23  0  0  0  0  0  0  0  0999 V2000
   -5.5224   -0.2662   33.5242 C   0  0  0  0  0  0  0  0  0  0  0  0
   -4.5882   -0.1511   34.7324 C   0  0  0  0  0  0  0  0  0  0  0  0
   -3.9047    1.2437   34.7607 C   0  0  0  0  0  0  0  0  0  0  0  0
   -3.4824   -1.2390   34.5726 C   0  0  0  0  0  0  0  0  0  0  0  0
   -2.6357   -0.9744   33.4093 N   0  0  0  0  0  0  0  0  0  0  0  0
   -2.6322   -1.6162   32.0031 C   0  0  0  0  0  0  0  0  0  0  0  0
   -3.2525   -2.5092   31.5775 O   0  0  0  0  0  0  0  0  0  0  0  0
   -1.7287   -0.8302   31.1189 C   0  0  0  0  0  0  0  0  0  0  0  0
   -1.5867   -0.8790   29.6972 C   0  0  0  0  0  0  0  0  0  0  0  0
   -0.7197    0.1497   29.3884 C   0  0  0  0  0  0  0  0  0  0  0  0
   -0.0655    0.6738   28.1634 C   0  0  0  0  0  0  0  0  0  0  0  0
   -0.9338    2.0678   27.4229 S   0  0  0  0  0  0  0  0  0  0  0  0
   -2.3005    1.2999   26.6224 C   0  0  0  0  0  0  0  0  0  0  0  0
   -0.0824    2.6145   26.3792 O   0  0  0  0  0  0  0  0  0  0  0  0
   -1.4717    2.9580   28.4236 O   0  0  0  0  0  0  0  0  0  0  0  0
   -0.3258    0.7401   30.5491 O   0  0  0  0  0  0  0  0  0  0  0  0
   -0.9558    0.1489   31.6220 N   0  0  0  0  0  0  0  0  0  0  0  0
   -5.4483   -0.2067   36.0354 C   0  0  1  0  0  0  0  0  0  0  0  0
   -6.7403   -1.0076   36.0341 C   0  0  0  0  0  0  0  0  0  0  0  0
   -7.1083   -1.0515   37.5115 C   0  0  0  0  0  0  0  0  0  0  0  0
   -5.8101   -0.7793   38.2639 C   0  0  0  0  0  0  0  0  0  0  0  0
   -4.7553   -0.6745   37.2461 N   0  0  0  0  0  0  0  0  0  0  0  0
  1  2  1  0
  2  3  1  0
  2  4  1  0
  4  5  1  0
  5  6  1  0
  6  7  2  0
  6  8  1  0
  8  9  1  0
  9 10  2  0
 10 11  1  0
 11 12  1  0
 12 13  1  0
 12 14  2  0
 12 15  2  0
 10 16  1  0
 16 17  1  0
 18  2  1  6
 18 19  1  0
 19 20  1  0
 20 21  1  0
 21 22  1  0
 17  8  2  0
 22 18  1  0
M  END
>  <HIPPO Pose ID>  (65) 
4529

>  <scratch_subdir>  (65) 
/opt/xchem-fragalysis-2/maxwin/BulkDock/SCRATCH/350564/C3495-P59

>  <ref_mols>  (65) 
7gpf-a,7goy-a

>  <original SMILES>  (65) 
CC(C)(CNC(=O)c1cc(CS(C)(=O)=O)on1)[C@H]1CCCN1

>  <HIPPO Compound ID>  (65) 
3495

>  <original ID>  (65) 
JNRRWVFGILCLPY-GFCCVEGCSA-N

>  <alias>  (65) 
None

>  <fragmenstein_runtime>  (65) 
8.712616

>  <score_inspiration>  (65) 
0.49465

>  <name>  (65) 
JNRRWVFGILCLPY-GFCCVEGCSA-N

>  <fragmenstein_mode>  (65) 
expansion

>  <fragmenstein_error>  (65) 
None

>  <fragmenstein_outcome>  (65) 
acceptable

>  <inchikey>  (65) 
JNRRWVFGILCLPY-GFCCVEGCSA-N

>  <tags>  (65) 
Fragmenstein placed

>  <SLURM_JOB_ID>  (65) 
350564

>  <energy_score>  (65) 
-17.724123

>  <ref_pdb>  (65) 
7goy-a

>  <distance_score>  (65) 
0.837082

>  <csv_name>  (65) 
D68EV3C_iter1_knitwork_pure_split1000_batch003.csv

$$$$
5409
     RDKit          3D

 19 21  0  0  0  0  0  0  0  0999 V2000
   -2.9507   -0.6407   33.2268 C   0  0  0  0  0  0  0  0  0  0  0  0
   -2.2801   -1.4910   32.2468 C   0  0  0  0  0  0  0  0  0  0  0  0
   -1.3201   -1.3036   31.2880 C   0  0  0  0  0  0  0  0  0  0  0  0
   -1.1744   -2.5798   30.6891 C   0  0  0  0  0  0  0  0  0  0  0  0
   -0.3361   -3.0236   29.5205 C   0  0  2  0  0  0  0  0  0  0  0  0
    0.4859   -4.3033   29.8650 C   0  0  0  0  0  0  0  0  0  0  0  0
    1.3890   -4.2133   31.0221 N   0  0  0  0  0  0  0  0  0  0  0  0
    0.6203   -1.9523   28.9600 C   0  0  0  0  0  0  0  0  0  0  0  0
    0.0573   -0.6550   28.4169 C   0  0  0  0  0  0  0  0  0  0  0  0
    0.8808    0.4968   28.4943 C   0  0  0  0  0  0  0  0  0  0  0  0
    0.4609    1.7298   27.9925 C   0  0  0  0  0  0  0  0  0  0  0  0
   -0.7787    1.7871   27.4026 C   0  0  0  0  0  0  0  0  0  0  0  0
   -1.5837    0.6791   27.3040 C   0  0  0  0  0  0  0  0  0  0  0  0
   -1.1978   -0.5543   27.7963 C   0  0  0  0  0  0  0  0  0  0  0  0
   -2.7473    0.9557   26.6581 O   0  0  0  0  0  0  0  0  0  0  0  0
   -2.6069    2.3679   26.4098 C   0  0  0  0  0  0  0  0  0  0  0  0
   -1.3340    2.8928   26.8410 O   0  0  0  0  0  0  0  0  0  0  0  0
   -1.9563   -3.4787   31.3054 N   0  0  0  0  0  0  0  0  0  0  0  0
   -2.6639   -2.7876   32.2538 O   0  0  0  0  0  0  0  0  0  0  0  0
  1  2  1  0
  2  3  2  0
  3  4  1  0
  4  5  1  0
  5  6  1  1
  6  7  1  0
  5  8  1  0
  8  9  1  0
  9 10  2  0
 10 11  1  0
 11 12  2  0
 12 13  1  0
 13 14  2  0
 13 15  1  0
 15 16  1  0
 16 17  1  0
  4 18  2  0
 18 19  1  0
 19  2  1  0
 14  9  1  0
 17 12  1  0
M  END
>  <HIPPO Pose ID>  (66) 
5409

>  <scratch_subdir>  (66) 
/opt/xchem-fragalysis-2/maxwin/BulkDock/SCRATCH/350563/C2680-P13

>  <ref_mols>  (66) 
7gp9-a,7goy-a

>  <original SMILES>  (66) 
Cc1cc([C@H](CN)Cc2ccc3c(c2)OCO3)no1

>  <HIPPO Compound ID>  (66) 
2680

>  <original ID>  (66) 
AURITXBPILSFGT-NSHDSACASA-N

>  <alias>  (66) 
None

>  <fragmenstein_runtime>  (66) 
1.617623

>  <score_inspiration>  (66) 
0.643236

>  <name>  (66) 
AURITXBPILSFGT-NSHDSACASA-N

>  <fragmenstein_mode>  (66) 
expansion

>  <fragmenstein_error>  (66) 
None

>  <fragmenstein_outcome>  (66) 
acceptable

>  <inchikey>  (66) 
AURITXBPILSFGT-NSHDSACASA-N

>  <tags>  (66) 
Fragmenstein placed

>  <SLURM_JOB_ID>  (66) 
350563

>  <energy_score>  (66) 
-29.115416

>  <ref_pdb>  (66) 
7gp9-a

>  <distance_score>  (66) 
0.907233

>  <csv_name>  (66) 
D68EV3C_iter1_knitwork_pure_split1000_batch002.csv

$$$$
5415
     RDKit          3D

 19 21  0  0  0  0  0  0  0  0999 V2000
   -2.9639   -0.6130   33.2112 C   0  0  0  0  0  0  0  0  0  0  0  0
   -2.2735   -1.4687   32.2505 C   0  0  0  0  0  0  0  0  0  0  0  0
   -1.3416   -1.2770   31.2650 C   0  0  0  0  0  0  0  0  0  0  0  0
   -1.1559   -2.5666   30.7068 C   0  0  0  0  0  0  0  0  0  0  0  0
   -0.3345   -3.0169   29.5268 C   0  0  2  0  0  0  0  0  0  0  0  0
    0.4902   -4.2985   29.8588 C   0  0  0  0  0  0  0  0  0  0  0  0
    1.4154   -4.2078   30.9979 N   0  0  0  0  0  0  0  0  0  0  0  0
    0.6164   -1.9505   28.9478 C   0  0  0  0  0  0  0  0  0  0  0  0
    0.0455   -0.6606   28.3965 C   0  0  0  0  0  0  0  0  0  0  0  0
    0.8661    0.4942   28.4557 C   0  0  0  0  0  0  0  0  0  0  0  0
    0.4343    1.7228   27.9537 C   0  0  0  0  0  0  0  0  0  0  0  0
   -0.8148    1.7728   27.3835 C   0  0  0  0  0  0  0  0  0  0  0  0
   -1.6160    0.6606   27.2996 C   0  0  0  0  0  0  0  0  0  0  0  0
   -1.2170   -0.5692   27.7894 C   0  0  0  0  0  0  0  0  0  0  0  0
   -2.7934    0.9302   26.6762 O   0  0  0  0  0  0  0  0  0  0  0  0
   -2.6642    2.3435   26.4260 C   0  0  0  0  0  0  0  0  0  0  0  0
   -1.3865    2.8755   26.8327 O   0  0  0  0  0  0  0  0  0  0  0  0
   -1.8863   -3.4727   31.3739 N   0  0  0  0  0  0  0  0  0  0  0  0
   -2.6020   -2.7784   32.3119 O   0  0  0  0  0  0  0  0  0  0  0  0
  1  2  1  0
  2  3  2  0
  3  4  1  0
  4  5  1  0
  5  6  1  1
  6  7  1  0
  5  8  1  0
  8  9  1  0
  9 10  2  0
 10 11  1  0
 11 12  2  0
 12 13  1  0
 13 14  2  0
 13 15  1  0
 15 16  1  0
 16 17  1  0
  4 18  2  0
 18 19  1  0
 19  2  1  0
 14  9  1  0
 17 12  1  0
M  END
>  <HIPPO Pose ID>  (67) 
5415

>  <scratch_subdir>  (67) 
/opt/xchem-fragalysis-2/maxwin/BulkDock/SCRATCH/350563/C2680-P59

>  <ref_mols>  (67) 
7gp9-a,7goy-a

>  <original SMILES>  (67) 
Cc1cc([C@H](CN)Cc2ccc3c(c2)OCO3)no1

>  <HIPPO Compound ID>  (67) 
2680

>  <original ID>  (67) 
AURITXBPILSFGT-NSHDSACASA-N

>  <alias>  (67) 
None

>  <fragmenstein_runtime>  (67) 
1.557991

>  <score_inspiration>  (67) 
0.649899

>  <name>  (67) 
AURITXBPILSFGT-NSHDSACASA-N

>  <fragmenstein_mode>  (67) 
expansion

>  <fragmenstein_error>  (67) 
None

>  <fragmenstein_outcome>  (67) 
acceptable

>  <inchikey>  (67) 
AURITXBPILSFGT-NSHDSACASA-N

>  <tags>  (67) 
Fragmenstein placed

>  <SLURM_JOB_ID>  (67) 
350563

>  <energy_score>  (67) 
-28.96232

>  <ref_pdb>  (67) 
7goy-a

>  <distance_score>  (67) 
0.90321

>  <csv_name>  (67) 
D68EV3C_iter1_knitwork_pure_split1000_batch002.csv

$$$$
5536
     RDKit          3D

 22 24  0  0  0  0  0  0  0  0999 V2000
    1.9050    1.3879   28.8051 C   0  0  0  0  0  0  0  0  0  0  0  0
    1.4272    0.1361   28.0738 C   0  0  2  0  0  0  0  0  0  0  0  0
   -0.1029   -0.0148   28.0353 C   0  0  0  0  0  0  0  0  0  0  0  0
   -0.7233   -0.4101   29.3254 C   0  0  0  0  0  0  0  0  0  0  0  0
   -1.5042   -1.4739   29.7059 C   0  0  0  0  0  0  0  0  0  0  0  0
   -1.7824   -1.2238   31.0593 C   0  0  0  0  0  0  0  0  0  0  0  0
   -1.1943   -0.1080   31.4952 N   0  0  0  0  0  0  0  0  0  0  0  0
   -0.5416    0.4148   30.3905 O   0  0  0  0  0  0  0  0  0  0  0  0
    2.0863   -1.0384   28.6097 N   0  0  0  0  0  0  0  0  0  0  0  0
    3.1124   -2.0038   27.9577 C   0  0  0  0  0  0  0  0  0  0  0  0
    3.6409   -1.9560   26.9175 O   0  0  0  0  0  0  0  0  0  0  0  0
    3.4091   -3.1112   28.9517 C   0  0  0  0  0  0  0  0  0  0  0  0
    2.6049   -4.3040   28.7154 N   0  0  0  0  0  0  0  0  0  0  0  0
    2.9203   -5.2599   27.7839 C   0  0  0  0  0  0  0  0  0  0  0  0
    2.1988   -6.3880   28.0828 C   0  0  0  0  0  0  0  0  0  0  0  0
    1.3216   -6.0840   29.1556 C   0  0  0  0  0  0  0  0  0  0  0  0
    0.3598   -6.8248   29.8764 C   0  0  0  0  0  0  0  0  0  0  0  0
   -0.2663   -6.2425   30.9818 C   0  0  0  0  0  0  0  0  0  0  0  0
    0.0289   -4.9331   31.3422 C   0  0  0  0  0  0  0  0  0  0  0  0
   -0.7243   -4.2554   32.7283 Cl  0  0  0  0  0  0  0  0  0  0  0  0
    0.9431   -4.1629   30.6228 C   0  0  0  0  0  0  0  0  0  0  0  0
    1.5937   -4.7660   29.5369 C   0  0  0  0  0  0  0  0  0  0  0  0
  2  1  1  1
  2  3  1  0
  3  4  1  0
  4  5  2  0
  5  6  1  0
  6  7  2  0
  7  8  1  0
  2  9  1  0
  9 10  1  0
 10 11  2  0
 10 12  1  0
 12 13  1  0
 13 14  1  0
 14 15  2  0
 15 16  1  0
 16 17  2  0
 17 18  1  0
 18 19  2  0
 19 20  1  0
 19 21  1  0
 21 22  2  0
  8  4  1  0
 22 13  1  0
 22 16  1  0
M  END
>  <HIPPO Pose ID>  (68) 
5536

>  <scratch_subdir>  (68) 
/opt/xchem-fragalysis-2/maxwin/BulkDock/SCRATCH/350561/C4828-P40

>  <ref_mols>  (68) 
7gok-a,7goy-a

>  <original SMILES>  (68) 
C[C@H](Cc1ccno1)NC(=O)Cn1ccc2ccc(Cl)cc21

>  <HIPPO Compound ID>  (68) 
4828

>  <original ID>  (68) 
OQSBTZXDUKNLSZ-LLVKDONJSA-N

>  <alias>  (68) 
None

>  <fragmenstein_runtime>  (68) 
4.411427

>  <score_inspiration>  (68) 
0.548771

>  <name>  (68) 
OQSBTZXDUKNLSZ-LLVKDONJSA-N

>  <fragmenstein_mode>  (68) 
expansion

>  <fragmenstein_error>  (68) 
None

>  <fragmenstein_outcome>  (68) 
acceptable

>  <inchikey>  (68) 
OQSBTZXDUKNLSZ-LLVKDONJSA-N

>  <tags>  (68) 
Fragmenstein placed

>  <SLURM_JOB_ID>  (68) 
350561

>  <energy_score>  (68) 
-10.97966

>  <ref_pdb>  (68) 
7gok-a

>  <distance_score>  (68) 
0.806345

>  <csv_name>  (68) 
D68EV3C_iter1_knitwork_pure_split1000_batch000.csv

$$$$
5645
     RDKit          3D

 19 21  0  0  0  0  0  0  0  0999 V2000
   -3.2422   -2.4038   32.2278 C   0  0  0  0  0  0  0  0  0  0  0  0
   -2.2092   -1.4001   31.9902 C   0  0  0  0  0  0  0  0  0  0  0  0
   -2.2351   -0.2788   32.7162 N   0  0  0  0  0  0  0  0  0  0  0  0
   -1.0710    0.3840   32.3972 O   0  0  0  0  0  0  0  0  0  0  0  0
   -0.3818   -0.3319   31.4818 C   0  0  0  0  0  0  0  0  0  0  0  0
   -1.0868   -1.4571   31.1277 C   0  0  0  0  0  0  0  0  0  0  0  0
   -0.7899   -2.4354   30.1688 N   0  0  0  0  0  0  0  0  0  0  0  0
    0.4701   -2.2549   29.0604 S   0  0  0  0  0  0  0  0  0  0  0  0
    0.3858   -3.3594   28.1380 O   0  0  0  0  0  0  0  0  0  0  0  0
    1.6816   -2.0130   29.8187 O   0  0  0  0  0  0  0  0  0  0  0  0
    0.0322   -0.7447   28.2312 C   0  0  0  0  0  0  0  0  0  0  0  0
    0.9621    0.3170   28.2220 C   0  0  0  0  0  0  0  0  0  0  0  0
    0.5942    1.5667   27.7208 C   0  0  0  0  0  0  0  0  0  0  0  0
   -0.6889    1.7099   27.2389 C   0  0  0  0  0  0  0  0  0  0  0  0
   -1.5866    0.6674   27.2327 C   0  0  0  0  0  0  0  0  0  0  0  0
   -1.2620   -0.5804   27.7220 C   0  0  0  0  0  0  0  0  0  0  0  0
   -2.7803    1.0287   26.6947 O   0  0  0  0  0  0  0  0  0  0  0  0
   -2.5591    2.4262   26.4182 C   0  0  0  0  0  0  0  0  0  0  0  0
   -1.2086    2.8485   26.7092 O   0  0  0  0  0  0  0  0  0  0  0  0
  1  2  1  0
  2  3  2  0
  3  4  1  0
  4  5  1  0
  5  6  2  0
  6  7  1  0
  7  8  1  0
  8  9  2  0
  8 10  2  0
  8 11  1  0
 11 12  2  0
 12 13  1  0
 13 14  2  0
 14 15  1  0
 15 16  2  0
 15 17  1  0
 17 18  1  0
 18 19  1  0
  6  2  1  0
 16 11  1  0
 19 14  1  0
M  END
>  <HIPPO Pose ID>  (69) 
5645

>  <scratch_subdir>  (69) 
/opt/xchem-fragalysis-2/maxwin/BulkDock/SCRATCH/350563/C2702-P13

>  <ref_mols>  (69) 
7gp9-a,7goy-a

>  <original SMILES>  (69) 
Cc1nocc1NS(=O)(=O)c1ccc2c(c1)OCO2

>  <HIPPO Compound ID>  (69) 
2702

>  <original ID>  (69) 
OGQQYDHFVIPXMW-UHFFFAOYSA-N

>  <alias>  (69) 
None

>  <fragmenstein_runtime>  (69) 
1.880447

>  <score_inspiration>  (69) 
0.655797

>  <name>  (69) 
OGQQYDHFVIPXMW-UHFFFAOYSA-N

>  <fragmenstein_mode>  (69) 
expansion

>  <fragmenstein_error>  (69) 
None

>  <fragmenstein_outcome>  (69) 
acceptable

>  <inchikey>  (69) 
OGQQYDHFVIPXMW-UHFFFAOYSA-N

>  <tags>  (69) 
Fragmenstein placed

>  <SLURM_JOB_ID>  (69) 
350563

>  <energy_score>  (69) 
-48.42727

>  <ref_pdb>  (69) 
7gp9-a

>  <distance_score>  (69) 
0.948415

>  <csv_name>  (69) 
D68EV3C_iter1_knitwork_pure_split1000_batch002.csv

$$$$
5649
     RDKit          3D

 19 21  0  0  0  0  0  0  0  0999 V2000
   -3.5799   -2.1575   32.1751 C   0  0  0  0  0  0  0  0  0  0  0  0
   -2.3520   -1.3700   32.0360 C   0  0  0  0  0  0  0  0  0  0  0  0
   -2.2376   -0.2973   32.8274 N   0  0  0  0  0  0  0  0  0  0  0  0
   -0.9986    0.2312   32.5578 O   0  0  0  0  0  0  0  0  0  0  0  0
   -0.3848   -0.5209   31.6200 C   0  0  0  0  0  0  0  0  0  0  0  0
   -1.2159   -1.5325   31.1969 C   0  0  0  0  0  0  0  0  0  0  0  0
   -1.0008   -2.4788   30.1830 N   0  0  0  0  0  0  0  0  0  0  0  0
    0.2789   -2.3393   29.0809 S   0  0  0  0  0  0  0  0  0  0  0  0
    0.1491   -3.4248   28.1420 O   0  0  0  0  0  0  0  0  0  0  0  0
    1.4989   -2.1625   29.8431 O   0  0  0  0  0  0  0  0  0  0  0  0
   -0.0965   -0.8046   28.2686 C   0  0  0  0  0  0  0  0  0  0  0  0
    0.8600    0.2320   28.2834 C   0  0  0  0  0  0  0  0  0  0  0  0
    0.5357    1.4902   27.7716 C   0  0  0  0  0  0  0  0  0  0  0  0
   -0.7335    1.6672   27.2633 C   0  0  0  0  0  0  0  0  0  0  0  0
   -1.6564    0.6475   27.2351 C   0  0  0  0  0  0  0  0  0  0  0  0
   -1.3722   -0.6085   27.7256 C   0  0  0  0  0  0  0  0  0  0  0  0
   -2.8335    1.0392   26.6815 O   0  0  0  0  0  0  0  0  0  0  0  0
   -2.5770    2.4355   26.4293 C   0  0  0  0  0  0  0  0  0  0  0  0
   -1.2182    2.8211   26.7328 O   0  0  0  0  0  0  0  0  0  0  0  0
  1  2  1  0
  2  3  2  0
  3  4  1  0
  4  5  1  0
  5  6  2  0
  6  7  1  0
  7  8  1  0
  8  9  2  0
  8 10  2  0
  8 11  1  0
 11 12  2  0
 12 13  1  0
 13 14  2  0
 14 15  1  0
 15 16  2  0
 15 17  1  0
 17 18  1  0
 18 19  1  0
  6  2  1  0
 16 11  1  0
 19 14  1  0
M  END
>  <HIPPO Pose ID>  (70) 
5649

>  <scratch_subdir>  (70) 
/opt/xchem-fragalysis-2/maxwin/BulkDock/SCRATCH/350563/C2702-P59

>  <ref_mols>  (70) 
7gp9-a,7goy-a

>  <original SMILES>  (70) 
Cc1nocc1NS(=O)(=O)c1ccc2c(c1)OCO2

>  <HIPPO Compound ID>  (70) 
2702

>  <original ID>  (70) 
OGQQYDHFVIPXMW-UHFFFAOYSA-N

>  <alias>  (70) 
None

>  <fragmenstein_runtime>  (70) 
1.860794

>  <score_inspiration>  (70) 
0.665559

>  <name>  (70) 
OGQQYDHFVIPXMW-UHFFFAOYSA-N

>  <fragmenstein_mode>  (70) 
expansion

>  <fragmenstein_error>  (70) 
None

>  <fragmenstein_outcome>  (70) 
acceptable

>  <inchikey>  (70) 
OGQQYDHFVIPXMW-UHFFFAOYSA-N

>  <tags>  (70) 
Fragmenstein placed

>  <SLURM_JOB_ID>  (70) 
350563

>  <energy_score>  (70) 
-48.767972

>  <ref_pdb>  (70) 
7goy-a

>  <distance_score>  (70) 
0.960596

>  <csv_name>  (70) 
D68EV3C_iter1_knitwork_pure_split1000_batch002.csv

$$$$
5651
     RDKit          3D

 19 21  0  0  0  0  0  0  0  0999 V2000
   -3.6137   -2.1596   32.2747 C   0  0  0  0  0  0  0  0  0  0  0  0
   -2.3512   -1.4641   32.0374 C   0  0  0  0  0  0  0  0  0  0  0  0
   -2.1900   -0.3888   32.8502 O   0  0  0  0  0  0  0  0  0  0  0  0
   -0.9784    0.2052   32.6013 N   0  0  0  0  0  0  0  0  0  0  0  0
   -0.4098   -0.5464   31.6595 C   0  0  0  0  0  0  0  0  0  0  0  0
   -1.2563   -1.5932   31.2114 C   0  0  0  0  0  0  0  0  0  0  0  0
   -1.0199   -2.5098   30.1763 N   0  0  0  0  0  0  0  0  0  0  0  0
    0.2760   -2.3470   29.1008 S   0  0  0  0  0  0  0  0  0  0  0  0
    0.1761   -3.4193   28.1440 O   0  0  0  0  0  0  0  0  0  0  0  0
    1.4807   -2.1711   29.8873 O   0  0  0  0  0  0  0  0  0  0  0  0
   -0.0897   -0.8025   28.3012 C   0  0  0  0  0  0  0  0  0  0  0  0
    0.8666    0.2343   28.3422 C   0  0  0  0  0  0  0  0  0  0  0  0
    0.5535    1.4966   27.8335 C   0  0  0  0  0  0  0  0  0  0  0  0
   -0.7038    1.6773   27.2980 C   0  0  0  0  0  0  0  0  0  0  0  0
   -1.6268    0.6588   27.2458 C   0  0  0  0  0  0  0  0  0  0  0  0
   -1.3547   -0.6006   27.7367 C   0  0  0  0  0  0  0  0  0  0  0  0
   -2.7884    1.0539   26.6627 O   0  0  0  0  0  0  0  0  0  0  0  0
   -2.5242    2.4495   26.4175 C   0  0  0  0  0  0  0  0  0  0  0  0
   -1.1730    2.8326   26.7567 O   0  0  0  0  0  0  0  0  0  0  0  0
  1  2  1  0
  2  3  1  0
  3  4  1  0
  4  5  2  0
  5  6  1  0
  6  7  1  0
  7  8  1  0
  8  9  2  0
  8 10  2  0
  8 11  1  0
 11 12  2  0
 12 13  1  0
 13 14  2  0
 14 15  1  0
 15 16  2  0
 15 17  1  0
 17 18  1  0
 18 19  1  0
  6  2  2  0
 16 11  1  0
 19 14  1  0
M  END
>  <HIPPO Pose ID>  (71) 
5651

>  <scratch_subdir>  (71) 
/opt/xchem-fragalysis-2/maxwin/BulkDock/SCRATCH/350563/C2703-P13

>  <ref_mols>  (71) 
7gp9-a,7goy-a

>  <original SMILES>  (71) 
Cc1oncc1NS(=O)(=O)c1ccc2c(c1)OCO2

>  <HIPPO Compound ID>  (71) 
2703

>  <original ID>  (71) 
OZBIAXQJPCEDIX-UHFFFAOYSA-N

>  <alias>  (71) 
None

>  <fragmenstein_runtime>  (71) 
1.683459

>  <score_inspiration>  (71) 
0.673192

>  <name>  (71) 
OZBIAXQJPCEDIX-UHFFFAOYSA-N

>  <fragmenstein_mode>  (71) 
expansion

>  <fragmenstein_error>  (71) 
None

>  <fragmenstein_outcome>  (71) 
acceptable

>  <inchikey>  (71) 
OZBIAXQJPCEDIX-UHFFFAOYSA-N

>  <tags>  (71) 
Fragmenstein placed

>  <SLURM_JOB_ID>  (71) 
350563

>  <energy_score>  (71) 
-51.079872

>  <ref_pdb>  (71) 
7gp9-a

>  <distance_score>  (71) 
0.948338

>  <csv_name>  (71) 
D68EV3C_iter1_knitwork_pure_split1000_batch002.csv

$$$$
5652
     RDKit          3D

 19 21  0  0  0  0  0  0  0  0999 V2000
   -3.6579   -2.1446   32.2336 C   0  0  0  0  0  0  0  0  0  0  0  0
   -2.3768   -1.4735   32.0230 C   0  0  0  0  0  0  0  0  0  0  0  0
   -2.2043   -0.4130   32.8529 O   0  0  0  0  0  0  0  0  0  0  0  0
   -0.9853    0.1706   32.6161 N   0  0  0  0  0  0  0  0  0  0  0  0
   -0.4217   -0.5742   31.6657 C   0  0  0  0  0  0  0  0  0  0  0  0
   -1.2774   -1.6070   31.2025 C   0  0  0  0  0  0  0  0  0  0  0  0
   -1.0456   -2.5138   30.1573 N   0  0  0  0  0  0  0  0  0  0  0  0
    0.2533   -2.3519   29.0836 S   0  0  0  0  0  0  0  0  0  0  0  0
    0.1549   -3.4258   28.1280 O   0  0  0  0  0  0  0  0  0  0  0  0
    1.4566   -2.1741   29.8717 O   0  0  0  0  0  0  0  0  0  0  0  0
   -0.1156   -0.8108   28.2810 C   0  0  0  0  0  0  0  0  0  0  0  0
    0.8420    0.2246   28.3085 C   0  0  0  0  0  0  0  0  0  0  0  0
    0.5247    1.4848   27.7968 C   0  0  0  0  0  0  0  0  0  0  0  0
   -0.7391    1.6651   27.2765 C   0  0  0  0  0  0  0  0  0  0  0  0
   -1.6635    0.6471   27.2375 C   0  0  0  0  0  0  0  0  0  0  0  0
   -1.3860   -0.6107   27.7273 C   0  0  0  0  0  0  0  0  0  0  0  0
   -2.8347    1.0421   26.6737 O   0  0  0  0  0  0  0  0  0  0  0  0
   -2.5739    2.4389   26.4291 C   0  0  0  0  0  0  0  0  0  0  0  0
   -1.2167    2.8209   26.7436 O   0  0  0  0  0  0  0  0  0  0  0  0
  1  2  1  0
  2  3  1  0
  3  4  1  0
  4  5  2  0
  5  6  1  0
  6  7  1  0
  7  8  1  0
  8  9  2  0
  8 10  2  0
  8 11  1  0
 11 12  2  0
 12 13  1  0
 13 14  2  0
 14 15  1  0
 15 16  2  0
 15 17  1  0
 17 18  1  0
 18 19  1  0
  6  2  2  0
 16 11  1  0
 19 14  1  0
M  END
>  <HIPPO Pose ID>  (72) 
5652

>  <scratch_subdir>  (72) 
/opt/xchem-fragalysis-2/maxwin/BulkDock/SCRATCH/350563/C2703-P59

>  <ref_mols>  (72) 
7gp9-a,7goy-a

>  <original SMILES>  (72) 
Cc1oncc1NS(=O)(=O)c1ccc2c(c1)OCO2

>  <HIPPO Compound ID>  (72) 
2703

>  <original ID>  (72) 
OZBIAXQJPCEDIX-UHFFFAOYSA-N

>  <alias>  (72) 
None

>  <fragmenstein_runtime>  (72) 
1.955913

>  <score_inspiration>  (72) 
0.679535

>  <name>  (72) 
OZBIAXQJPCEDIX-UHFFFAOYSA-N

>  <fragmenstein_mode>  (72) 
expansion

>  <fragmenstein_error>  (72) 
None

>  <fragmenstein_outcome>  (72) 
acceptable

>  <inchikey>  (72) 
OZBIAXQJPCEDIX-UHFFFAOYSA-N

>  <tags>  (72) 
Fragmenstein placed

>  <SLURM_JOB_ID>  (72) 
350563

>  <energy_score>  (72) 
-51.167441

>  <ref_pdb>  (72) 
7goy-a

>  <distance_score>  (72) 
0.93999

>  <csv_name>  (72) 
D68EV3C_iter1_knitwork_pure_split1000_batch002.csv

$$$$
5707
     RDKit          3D

 25 27  0  0  0  0  0  0  0  0999 V2000
   -7.4764   -0.5836   35.4715 C   0  0  0  0  0  0  0  0  0  0  0  0
   -6.0458   -0.8741   35.2866 C   0  0  0  0  0  0  0  0  0  0  0  0
   -5.1907   -0.7907   34.2191 C   0  0  0  0  0  0  0  0  0  0  0  0
   -3.9574   -1.2542   34.7195 C   0  0  0  0  0  0  0  0  0  0  0  0
   -2.7943   -1.3421   34.0206 N   0  0  0  0  0  0  0  0  0  0  0  0
   -2.4436   -0.8687   32.5905 C   0  0  0  0  0  0  0  0  0  0  0  0
   -3.1190   -0.3994   31.7624 O   0  0  0  0  0  0  0  0  0  0  0  0
   -0.9282   -1.0754   32.3465 C   0  0  1  0  0  0  0  0  0  0  0  0
   -0.0668   -0.3716   33.3899 C   0  0  0  0  0  0  0  0  0  0  0  0
   -0.5848   -2.4664   32.3313 O   0  0  0  0  0  0  0  0  0  0  0  0
   -0.8245   -3.2700   31.2654 C   0  0  0  0  0  0  0  0  0  0  0  0
   -0.7724   -4.4909   31.3993 O   0  0  0  0  0  0  0  0  0  0  0  0
   -1.1664   -2.6459   29.9360 C   0  0  0  0  0  0  0  0  0  0  0  0
    0.0460   -2.0944   29.1881 C   0  0  0  0  0  0  0  0  0  0  0  0
   -0.2425   -0.7650   28.5244 C   0  0  0  0  0  0  0  0  0  0  0  0
    0.6885    0.2921   28.6385 C   0  0  0  0  0  0  0  0  0  0  0  0
    0.4258    1.5474   28.0797 C   0  0  0  0  0  0  0  0  0  0  0  0
   -0.7676    1.7184   27.4142 C   0  0  0  0  0  0  0  0  0  0  0  0
   -1.6662    0.6917   27.2687 C   0  0  0  0  0  0  0  0  0  0  0  0
   -1.4258   -0.5611   27.7916 C   0  0  0  0  0  0  0  0  0  0  0  0
   -2.7710    1.0683   26.5724 O   0  0  0  0  0  0  0  0  0  0  0  0
   -2.5125    2.4731   26.3866 C   0  0  0  0  0  0  0  0  0  0  0  0
   -1.1955    2.8690   26.8298 O   0  0  0  0  0  0  0  0  0  0  0  0
   -4.0498   -1.5886   36.0086 N   0  0  0  0  0  0  0  0  0  0  0  0
   -5.3630   -1.3311   36.3694 O   0  0  0  0  0  0  0  0  0  0  0  0
  1  2  1  0
  2  3  2  0
  3  4  1  0
  4  5  1  0
  5  6  1  0
  6  7  2  0
  6  8  1  0
  8  9  1  1
  8 10  1  0
 10 11  1  0
 11 12  2  0
 11 13  1  0
 13 14  1  0
 14 15  1  0
 15 16  2  0
 16 17  1  0
 17 18  2  0
 18 19  1  0
 19 20  2  0
 19 21  1  0
 21 22  1  0
 22 23  1  0
  4 24  2  0
 24 25  1  0
 25  2  1  0
 20 15  1  0
 23 18  1  0
M  END
>  <HIPPO Pose ID>  (73) 
5707

>  <scratch_subdir>  (73) 
/opt/xchem-fragalysis-2/maxwin/BulkDock/SCRATCH/350563/C2712-P59

>  <ref_mols>  (73) 
7gp9-a,7goy-a

>  <original SMILES>  (73) 
Cc1cc(NC(=O)[C@@H](C)OC(=O)CCc2ccc3c(c2)OCO3)no1

>  <HIPPO Compound ID>  (73) 
2712

>  <original ID>  (73) 
XXKZVLJPYRTNBA-LLVKDONJSA-N

>  <alias>  (73) 
None

>  <fragmenstein_runtime>  (73) 
2.37165

>  <score_inspiration>  (73) 
0.588698

>  <name>  (73) 
XXKZVLJPYRTNBA-LLVKDONJSA-N

>  <fragmenstein_mode>  (73) 
expansion

>  <fragmenstein_error>  (73) 
None

>  <fragmenstein_outcome>  (73) 
acceptable

>  <inchikey>  (73) 
XXKZVLJPYRTNBA-LLVKDONJSA-N

>  <tags>  (73) 
Fragmenstein placed

>  <SLURM_JOB_ID>  (73) 
350563

>  <energy_score>  (73) 
-45.160851

>  <ref_pdb>  (73) 
7goy-a

>  <distance_score>  (73) 
0.979651

>  <csv_name>  (73) 
D68EV3C_iter1_knitwork_pure_split1000_batch002.csv

$$$$
5800
     RDKit          3D

 17 19  0  0  0  0  0  0  0  0999 V2000
   -2.5291   -0.5280   33.4168 C   0  0  0  0  0  0  0  0  0  0  0  0
   -2.0801   -1.4202   32.3532 C   0  0  0  0  0  0  0  0  0  0  0  0
   -1.1294   -1.3609   31.3676 C   0  0  0  0  0  0  0  0  0  0  0  0
   -1.3179   -2.5555   30.6365 C   0  0  0  0  0  0  0  0  0  0  0  0
   -0.7248   -2.8901   29.4720 N   0  0  0  0  0  0  0  0  0  0  0  0
    0.3111   -2.1176   28.8253 C   0  0  0  0  0  0  0  0  0  0  0  0
   -0.1251   -0.7551   28.3372 C   0  0  0  0  0  0  0  0  0  0  0  0
    0.7746    0.3335   28.4557 C   0  0  0  0  0  0  0  0  0  0  0  0
    0.4393    1.6063   27.9869 C   0  0  0  0  0  0  0  0  0  0  0  0
   -0.7909    1.7635   27.3913 C   0  0  0  0  0  0  0  0  0  0  0  0
   -1.6685    0.7162   27.2564 C   0  0  0  0  0  0  0  0  0  0  0  0
   -1.3689   -0.5501   27.7160 C   0  0  0  0  0  0  0  0  0  0  0  0
   -2.8060    1.0841   26.6107 O   0  0  0  0  0  0  0  0  0  0  0  0
   -2.5809    2.4936   26.4236 C   0  0  0  0  0  0  0  0  0  0  0  0
   -1.2695    2.9181   26.8570 O   0  0  0  0  0  0  0  0  0  0  0  0
   -2.2292   -3.3277   31.2315 N   0  0  0  0  0  0  0  0  0  0  0  0
   -2.7272   -2.6058   32.2831 O   0  0  0  0  0  0  0  0  0  0  0  0
  1  2  1  0
  2  3  2  0
  3  4  1  0
  4  5  1  0
  5  6  1  0
  6  7  1  0
  7  8  2  0
  8  9  1  0
  9 10  2  0
 10 11  1  0
 11 12  2  0
 11 13  1  0
 13 14  1  0
 14 15  1  0
  4 16  2  0
 16 17  1  0
 17  2  1  0
 12  7  1  0
 15 10  1  0
M  END
>  <HIPPO Pose ID>  (74) 
5800

>  <scratch_subdir>  (74) 
/opt/xchem-fragalysis-2/maxwin/BulkDock/SCRATCH/350563/C2727-P13

>  <ref_mols>  (74) 
7gp9-a,7goy-a

>  <original SMILES>  (74) 
Cc1cc(NCc2ccc3c(c2)OCO3)no1

>  <HIPPO Compound ID>  (74) 
2727

>  <original ID>  (74) 
WABQIGQTQRTYEW-UHFFFAOYSA-N

>  <alias>  (74) 
None

>  <fragmenstein_runtime>  (74) 
1.12606

>  <score_inspiration>  (74) 
0.834853

>  <name>  (74) 
WABQIGQTQRTYEW-UHFFFAOYSA-N

>  <fragmenstein_mode>  (74) 
expansion

>  <fragmenstein_error>  (74) 
None

>  <fragmenstein_outcome>  (74) 
acceptable

>  <inchikey>  (74) 
WABQIGQTQRTYEW-UHFFFAOYSA-N

>  <tags>  (74) 
Fragmenstein placed

>  <SLURM_JOB_ID>  (74) 
350563

>  <energy_score>  (74) 
-25.249575

>  <ref_pdb>  (74) 
7gp9-a

>  <distance_score>  (74) 
0.803734

>  <csv_name>  (74) 
D68EV3C_iter1_knitwork_pure_split1000_batch002.csv

$$$$
5801
     RDKit          3D

 17 19  0  0  0  0  0  0  0  0999 V2000
   -2.4313   -0.4396   33.4591 C   0  0  0  0  0  0  0  0  0  0  0  0
   -2.0358   -1.3417   32.3836 C   0  0  0  0  0  0  0  0  0  0  0  0
   -1.0923   -1.3194   31.3891 C   0  0  0  0  0  0  0  0  0  0  0  0
   -1.3361   -2.5031   30.6576 C   0  0  0  0  0  0  0  0  0  0  0  0
   -0.7596   -2.8680   29.4925 N   0  0  0  0  0  0  0  0  0  0  0  0
    0.2769   -2.1165   28.8200 C   0  0  0  0  0  0  0  0  0  0  0  0
   -0.1562   -0.7581   28.3195 C   0  0  0  0  0  0  0  0  0  0  0  0
    0.7493    0.3277   28.4165 C   0  0  0  0  0  0  0  0  0  0  0  0
    0.4114    1.5978   27.9426 C   0  0  0  0  0  0  0  0  0  0  0  0
   -0.8277    1.7548   27.3656 C   0  0  0  0  0  0  0  0  0  0  0  0
   -1.7096    0.7088   27.2486 C   0  0  0  0  0  0  0  0  0  0  0  0
   -1.4065   -0.5552   27.7105 C   0  0  0  0  0  0  0  0  0  0  0  0
   -2.8581    1.0762   26.6226 O   0  0  0  0  0  0  0  0  0  0  0  0
   -2.6356    2.4864   26.4348 C   0  0  0  0  0  0  0  0  0  0  0  0
   -1.3140    2.9089   26.8373 O   0  0  0  0  0  0  0  0  0  0  0  0
   -2.2804   -3.2323   31.2557 N   0  0  0  0  0  0  0  0  0  0  0  0
   -2.7372   -2.4957   32.3137 O   0  0  0  0  0  0  0  0  0  0  0  0
  1  2  1  0
  2  3  2  0
  3  4  1  0
  4  5  1  0
  5  6  1  0
  6  7  1  0
  7  8  2  0
  8  9  1  0
  9 10  2  0
 10 11  1  0
 11 12  2  0
 11 13  1  0
 13 14  1  0
 14 15  1  0
  4 16  2  0
 16 17  1  0
 17  2  1  0
 12  7  1  0
 15 10  1  0
M  END
>  <HIPPO Pose ID>  (75) 
5801

>  <scratch_subdir>  (75) 
/opt/xchem-fragalysis-2/maxwin/BulkDock/SCRATCH/350563/C2727-P59

>  <ref_mols>  (75) 
7gp9-a,7goy-a

>  <original SMILES>  (75) 
Cc1cc(NCc2ccc3c(c2)OCO3)no1

>  <HIPPO Compound ID>  (75) 
2727

>  <original ID>  (75) 
WABQIGQTQRTYEW-UHFFFAOYSA-N

>  <alias>  (75) 
None

>  <fragmenstein_runtime>  (75) 
1.077212

>  <score_inspiration>  (75) 
0.841515

>  <name>  (75) 
WABQIGQTQRTYEW-UHFFFAOYSA-N

>  <fragmenstein_mode>  (75) 
expansion

>  <fragmenstein_error>  (75) 
None

>  <fragmenstein_outcome>  (75) 
acceptable

>  <inchikey>  (75) 
WABQIGQTQRTYEW-UHFFFAOYSA-N

>  <tags>  (75) 
Fragmenstein placed

>  <SLURM_JOB_ID>  (75) 
350563

>  <energy_score>  (75) 
-25.492772

>  <ref_pdb>  (75) 
7goy-a

>  <distance_score>  (75) 
0.815383

>  <csv_name>  (75) 
D68EV3C_iter1_knitwork_pure_split1000_batch002.csv

$$$$
5901
     RDKit          3D

 21 23  0  0  0  0  0  0  0  0999 V2000
   -4.8580   -0.7627   34.9656 C   0  0  0  0  0  0  0  0  0  0  0  0
   -3.7710   -0.7645   33.9748 C   0  0  0  0  0  0  0  0  0  0  0  0
   -2.4116   -0.9453   34.0136 C   0  0  0  0  0  0  0  0  0  0  0  0
   -2.0102   -0.8893   32.6512 C   0  0  0  0  0  0  0  0  0  0  0  0
   -0.6527   -1.1539   32.0762 C   0  0  0  0  0  0  0  0  0  0  0  0
   -0.4782   -2.5328   31.5710 N   0  0  0  0  0  0  0  0  0  0  0  0
   -1.0111   -3.5436   32.4759 C   0  0  0  0  0  0  0  0  0  0  0  0
   -0.9858   -2.7260   30.2000 C   0  0  0  0  0  0  0  0  0  0  0  0
    0.0146   -2.2619   29.1120 C   0  0  1  0  0  0  0  0  0  0  0  0
    0.0371   -3.2485   28.0829 O   0  0  0  0  0  0  0  0  0  0  0  0
   -0.2652   -0.8993   28.5121 C   0  0  0  0  0  0  0  0  0  0  0  0
    0.7243    0.1119   28.5852 C   0  0  0  0  0  0  0  0  0  0  0  0
    0.5034    1.3870   28.0530 C   0  0  0  0  0  0  0  0  0  0  0  0
   -0.7078    1.6264   27.4451 C   0  0  0  0  0  0  0  0  0  0  0  0
   -1.6710    0.6533   27.3506 C   0  0  0  0  0  0  0  0  0  0  0  0
   -1.4828   -0.6125   27.8690 C   0  0  0  0  0  0  0  0  0  0  0  0
   -2.7784    1.0905   26.6941 O   0  0  0  0  0  0  0  0  0  0  0  0
   -2.4421    2.4725   26.4708 C   0  0  0  0  0  0  0  0  0  0  0  0
   -1.0908    2.7961   26.8670 O   0  0  0  0  0  0  0  0  0  0  0  0
   -3.0545   -0.6296   31.8607 N   0  0  0  0  0  0  0  0  0  0  0  0
   -4.1498   -0.5570   32.6920 O   0  0  0  0  0  0  0  0  0  0  0  0
  1  2  1  0
  2  3  2  0
  3  4  1  0
  4  5  1  0
  5  6  1  0
  6  7  1  0
  6  8  1  0
  8  9  1  0
  9 10  1  6
  9 11  1  0
 11 12  2  0
 12 13  1  0
 13 14  2  0
 14 15  1  0
 15 16  2  0
 15 17  1  0
 17 18  1  0
 18 19  1  0
  4 20  2  0
 20 21  1  0
 21  2  1  0
 16 11  1  0
 19 14  1  0
M  END
>  <HIPPO Pose ID>  (76) 
5901

>  <scratch_subdir>  (76) 
/opt/xchem-fragalysis-2/maxwin/BulkDock/SCRATCH/350563/C2742-P13

>  <ref_mols>  (76) 
7gp9-a,7goy-a

>  <original SMILES>  (76) 
Cc1cc(CN(C)C[C@@H](O)c2ccc3c(c2)OCO3)no1

>  <HIPPO Compound ID>  (76) 
2742

>  <original ID>  (76) 
PZMLGUFNJQOVAU-CYBMUJFWSA-N

>  <alias>  (76) 
None

>  <fragmenstein_runtime>  (76) 
2.18172

>  <score_inspiration>  (76) 
0.62586

>  <name>  (76) 
PZMLGUFNJQOVAU-CYBMUJFWSA-N

>  <fragmenstein_mode>  (76) 
expansion

>  <fragmenstein_error>  (76) 
None

>  <fragmenstein_outcome>  (76) 
acceptable

>  <inchikey>  (76) 
PZMLGUFNJQOVAU-CYBMUJFWSA-N

>  <tags>  (76) 
Fragmenstein placed

>  <SLURM_JOB_ID>  (76) 
350563

>  <energy_score>  (76) 
-38.307464

>  <ref_pdb>  (76) 
7gp9-a

>  <distance_score>  (76) 
0.966985

>  <csv_name>  (76) 
D68EV3C_iter1_knitwork_pure_split1000_batch002.csv

$$$$
5904
     RDKit          3D

 21 23  0  0  0  0  0  0  0  0999 V2000
   -4.8663   -0.6746   34.9574 C   0  0  0  0  0  0  0  0  0  0  0  0
   -3.8088   -0.7171   33.9362 C   0  0  0  0  0  0  0  0  0  0  0  0
   -2.4380   -0.7732   33.9489 C   0  0  0  0  0  0  0  0  0  0  0  0
   -2.0763   -0.8487   32.5768 C   0  0  0  0  0  0  0  0  0  0  0  0
   -0.7136   -1.0605   31.9921 C   0  0  0  0  0  0  0  0  0  0  0  0
   -0.4587   -2.4524   31.5639 N   0  0  0  0  0  0  0  0  0  0  0  0
   -0.9287   -3.4398   32.5304 C   0  0  0  0  0  0  0  0  0  0  0  0
   -0.9604   -2.7574   30.2124 C   0  0  0  0  0  0  0  0  0  0  0  0
   -0.0166   -2.3057   29.0721 C   0  0  1  0  0  0  0  0  0  0  0  0
   -0.0826   -3.2924   28.0439 O   0  0  0  0  0  0  0  0  0  0  0  0
   -0.2976   -0.9378   28.4864 C   0  0  0  0  0  0  0  0  0  0  0  0
    0.7141    0.0540   28.5151 C   0  0  0  0  0  0  0  0  0  0  0  0
    0.4972    1.3312   27.9863 C   0  0  0  0  0  0  0  0  0  0  0  0
   -0.7322    1.5916   27.4255 C   0  0  0  0  0  0  0  0  0  0  0  0
   -1.7176    0.6374   27.3748 C   0  0  0  0  0  0  0  0  0  0  0  0
   -1.5354   -0.6285   27.8942 C   0  0  0  0  0  0  0  0  0  0  0  0
   -2.8415    1.0924   26.7597 O   0  0  0  0  0  0  0  0  0  0  0  0
   -2.4853    2.4652   26.5111 C   0  0  0  0  0  0  0  0  0  0  0  0
   -1.1154    2.7663   26.8576 O   0  0  0  0  0  0  0  0  0  0  0  0
   -3.1594   -0.7861   31.7974 N   0  0  0  0  0  0  0  0  0  0  0  0
   -4.2364   -0.7118   32.6518 O   0  0  0  0  0  0  0  0  0  0  0  0
  1  2  1  0
  2  3  2  0
  3  4  1  0
  4  5  1  0
  5  6  1  0
  6  7  1  0
  6  8  1  0
  8  9  1  0
  9 10  1  6
  9 11  1  0
 11 12  2  0
 12 13  1  0
 13 14  2  0
 14 15  1  0
 15 16  2  0
 15 17  1  0
 17 18  1  0
 18 19  1  0
  4 20  2  0
 20 21  1  0
 21  2  1  0
 16 11  1  0
 19 14  1  0
M  END
>  <HIPPO Pose ID>  (77) 
5904

>  <scratch_subdir>  (77) 
/opt/xchem-fragalysis-2/maxwin/BulkDock/SCRATCH/350563/C2742-P59

>  <ref_mols>  (77) 
7gp9-a,7goy-a

>  <original SMILES>  (77) 
Cc1cc(CN(C)C[C@@H](O)c2ccc3c(c2)OCO3)no1

>  <HIPPO Compound ID>  (77) 
2742

>  <original ID>  (77) 
PZMLGUFNJQOVAU-CYBMUJFWSA-N

>  <alias>  (77) 
None

>  <fragmenstein_runtime>  (77) 
2.402916

>  <score_inspiration>  (77) 
0.631455

>  <name>  (77) 
PZMLGUFNJQOVAU-CYBMUJFWSA-N

>  <fragmenstein_mode>  (77) 
expansion

>  <fragmenstein_error>  (77) 
None

>  <fragmenstein_outcome>  (77) 
acceptable

>  <inchikey>  (77) 
PZMLGUFNJQOVAU-CYBMUJFWSA-N

>  <tags>  (77) 
Fragmenstein placed

>  <SLURM_JOB_ID>  (77) 
350563

>  <energy_score>  (77) 
-38.819843

>  <ref_pdb>  (77) 
7goy-a

>  <distance_score>  (77) 
0.961269

>  <csv_name>  (77) 
D68EV3C_iter1_knitwork_pure_split1000_batch002.csv

$$$$
5944
     RDKit          3D

 22 24  0  0  0  0  0  0  0  0999 V2000
   -4.8414   -1.3574   34.6773 C   0  0  0  0  0  0  0  0  0  0  0  0
   -3.6659   -1.1813   33.8089 C   0  0  0  0  0  0  0  0  0  0  0  0
   -2.3466   -1.5617   33.8577 C   0  0  0  0  0  0  0  0  0  0  0  0
   -1.7858   -1.0332   32.6699 C   0  0  0  0  0  0  0  0  0  0  0  0
   -0.3780   -1.0844   32.1909 C   0  0  0  0  0  0  0  0  0  0  0  0
    0.0168   -2.3289   31.5919 O   0  0  0  0  0  0  0  0  0  0  0  0
   -0.6684   -2.6394   30.4467 C   0  0  0  0  0  0  0  0  0  0  0  0
   -1.7735   -3.1693   30.4957 O   0  0  0  0  0  0  0  0  0  0  0  0
    0.1588   -2.3383   29.1723 C   0  0  0  0  0  0  0  0  0  0  0  0
   -0.0085   -3.3340   28.2484 F   0  0  0  0  0  0  0  0  0  0  0  0
    1.5025   -2.4166   29.4778 F   0  0  0  0  0  0  0  0  0  0  0  0
   -0.1725   -0.9670   28.5934 C   0  0  0  0  0  0  0  0  0  0  0  0
    0.7673    0.0910   28.7002 C   0  0  0  0  0  0  0  0  0  0  0  0
    0.5008    1.3580   28.1715 C   0  0  0  0  0  0  0  0  0  0  0  0
   -0.7045    1.5446   27.5350 C   0  0  0  0  0  0  0  0  0  0  0  0
   -1.6210    0.5290   27.4132 C   0  0  0  0  0  0  0  0  0  0  0  0
   -1.3899   -0.7330   27.9295 C   0  0  0  0  0  0  0  0  0  0  0  0
   -2.7257    0.9244   26.7270 O   0  0  0  0  0  0  0  0  0  0  0  0
   -2.4423    2.3189   26.5085 C   0  0  0  0  0  0  0  0  0  0  0  0
   -1.1210    2.6997   26.9510 O   0  0  0  0  0  0  0  0  0  0  0  0
   -2.7112   -0.3974   31.9464 N   0  0  0  0  0  0  0  0  0  0  0  0
   -3.8824   -0.4893   32.6649 O   0  0  0  0  0  0  0  0  0  0  0  0
  1  2  1  0
  2  3  2  0
  3  4  1  0
  4  5  1  0
  5  6  1  0
  6  7  1  0
  7  8  2  0
  7  9  1  0
  9 10  1  0
  9 11  1  0
  9 12  1  0
 12 13  2  0
 13 14  1  0
 14 15  2  0
 15 16  1  0
 16 17  2  0
 16 18  1  0
 18 19  1  0
 19 20  1  0
  4 21  2  0
 21 22  1  0
 22  2  1  0
 17 12  1  0
 20 15  1  0
M  END
>  <HIPPO Pose ID>  (78) 
5944

>  <scratch_subdir>  (78) 
/opt/xchem-fragalysis-2/maxwin/BulkDock/SCRATCH/350563/C2750-P13

>  <ref_mols>  (78) 
7gp9-a,7goy-a

>  <original SMILES>  (78) 
Cc1cc(COC(=O)C(F)(F)c2ccc3c(c2)OCO3)no1

>  <HIPPO Compound ID>  (78) 
2750

>  <original ID>  (78) 
AUKDWPVKNMYPMF-UHFFFAOYSA-N

>  <alias>  (78) 
None

>  <fragmenstein_runtime>  (78) 
2.028543

>  <score_inspiration>  (78) 
0.693298

>  <name>  (78) 
AUKDWPVKNMYPMF-UHFFFAOYSA-N

>  <fragmenstein_mode>  (78) 
expansion

>  <fragmenstein_error>  (78) 
None

>  <fragmenstein_outcome>  (78) 
acceptable

>  <inchikey>  (78) 
AUKDWPVKNMYPMF-UHFFFAOYSA-N

>  <tags>  (78) 
Fragmenstein placed

>  <SLURM_JOB_ID>  (78) 
350563

>  <energy_score>  (78) 
-28.928328

>  <ref_pdb>  (78) 
7gp9-a

>  <distance_score>  (78) 
0.992569

>  <csv_name>  (78) 
D68EV3C_iter1_knitwork_pure_split1000_batch002.csv

$$$$
5945
     RDKit          3D

 22 24  0  0  0  0  0  0  0  0999 V2000
   -4.7400   -1.2052   34.8180 C   0  0  0  0  0  0  0  0  0  0  0  0
   -3.6412   -1.0714   33.8482 C   0  0  0  0  0  0  0  0  0  0  0  0
   -2.2799   -1.2543   33.8826 C   0  0  0  0  0  0  0  0  0  0  0  0
   -1.8442   -0.8765   32.5887 C   0  0  0  0  0  0  0  0  0  0  0  0
   -0.4600   -0.7812   32.0522 C   0  0  0  0  0  0  0  0  0  0  0  0
    0.0993   -1.9999   31.5327 O   0  0  0  0  0  0  0  0  0  0  0  0
   -0.5962   -2.5479   30.4872 C   0  0  0  0  0  0  0  0  0  0  0  0
   -1.6321   -3.1806   30.6671 O   0  0  0  0  0  0  0  0  0  0  0  0
    0.1382   -2.3468   29.1384 C   0  0  0  0  0  0  0  0  0  0  0  0
   -0.1532   -3.3670   28.2746 F   0  0  0  0  0  0  0  0  0  0  0  0
    1.4959   -2.4817   29.3413 F   0  0  0  0  0  0  0  0  0  0  0  0
   -0.1795   -0.9831   28.5360 C   0  0  0  0  0  0  0  0  0  0  0  0
    0.7874    0.0543   28.5806 C   0  0  0  0  0  0  0  0  0  0  0  0
    0.5192    1.3200   28.0501 C   0  0  0  0  0  0  0  0  0  0  0  0
   -0.7145    1.5245   27.4754 C   0  0  0  0  0  0  0  0  0  0  0  0
   -1.6562    0.5265   27.4118 C   0  0  0  0  0  0  0  0  0  0  0  0
   -1.4242   -0.7331   27.9310 C   0  0  0  0  0  0  0  0  0  0  0  0
   -2.7893    0.9368   26.7837 O   0  0  0  0  0  0  0  0  0  0  0  0
   -2.4886    2.3222   26.5316 C   0  0  0  0  0  0  0  0  0  0  0  0
   -1.1406    2.6831   26.9053 O   0  0  0  0  0  0  0  0  0  0  0  0
   -2.8794   -0.5278   31.8189 N   0  0  0  0  0  0  0  0  0  0  0  0
   -3.9982   -0.6488   32.6118 O   0  0  0  0  0  0  0  0  0  0  0  0
  1  2  1  0
  2  3  2  0
  3  4  1  0
  4  5  1  0
  5  6  1  0
  6  7  1  0
  7  8  2  0
  7  9  1  0
  9 10  1  0
  9 11  1  0
  9 12  1  0
 12 13  2  0
 13 14  1  0
 14 15  2  0
 15 16  1  0
 16 17  2  0
 16 18  1  0
 18 19  1  0
 19 20  1  0
  4 21  2  0
 21 22  1  0
 22  2  1  0
 17 12  1  0
 20 15  1  0
M  END
>  <HIPPO Pose ID>  (79) 
5945

>  <scratch_subdir>  (79) 
/opt/xchem-fragalysis-2/maxwin/BulkDock/SCRATCH/350563/C2750-P59

>  <ref_mols>  (79) 
7gp9-a,7goy-a

>  <original SMILES>  (79) 
Cc1cc(COC(=O)C(F)(F)c2ccc3c(c2)OCO3)no1

>  <HIPPO Compound ID>  (79) 
2750

>  <original ID>  (79) 
AUKDWPVKNMYPMF-UHFFFAOYSA-N

>  <alias>  (79) 
None

>  <fragmenstein_runtime>  (79) 
1.915991

>  <score_inspiration>  (79) 
0.690107

>  <name>  (79) 
AUKDWPVKNMYPMF-UHFFFAOYSA-N

>  <fragmenstein_mode>  (79) 
expansion

>  <fragmenstein_error>  (79) 
None

>  <fragmenstein_outcome>  (79) 
acceptable

>  <inchikey>  (79) 
AUKDWPVKNMYPMF-UHFFFAOYSA-N

>  <tags>  (79) 
Fragmenstein placed

>  <SLURM_JOB_ID>  (79) 
350563

>  <energy_score>  (79) 
-28.260802

>  <ref_pdb>  (79) 
7goy-a

>  <distance_score>  (79) 
0.97721

>  <csv_name>  (79) 
D68EV3C_iter1_knitwork_pure_split1000_batch002.csv

$$$$
6290
     RDKit          3D

 13 14  0  0  0  0  0  0  0  0999 V2000
    0.7578    5.5278   27.9391 C   0  0  0  0  0  0  0  0  0  0  0  0
   -0.4687    4.8333   27.3677 C   0  0  0  0  0  0  0  0  0  0  0  0
   -0.4072    3.3189   27.6044 C   0  0  0  0  0  0  0  0  0  0  0  0
   -1.5440    2.5564   27.1331 N   0  0  0  0  0  0  0  0  0  0  0  0
   -2.6147    3.0502   26.4527 C   0  0  0  0  0  0  0  0  0  0  0  0
   -3.4726    2.0960   26.2065 N   0  0  0  0  0  0  0  0  0  0  0  0
   -2.9293    0.9352   26.6611 N   0  0  0  0  0  0  0  0  0  0  0  0
   -1.7761    1.2019   27.2400 C   0  0  0  0  0  0  0  0  0  0  0  0
   -0.9698    0.1501   27.9179 C   0  0  2  0  0  0  0  0  0  0  0  0
   -1.4020   -0.0636   29.3712 C   0  0  0  0  0  0  0  0  0  0  0  0
   -0.1541    0.2268   30.1842 C   0  0  0  0  0  0  0  0  0  0  0  0
    0.9596   -0.1207   29.2190 C   0  0  0  0  0  0  0  0  0  0  0  0
    0.4779    0.4209   27.9523 N   0  0  0  0  0  0  0  0  0  0  0  0
  1  2  1  0
  2  3  1  0
  3  4  1  0
  4  5  1  0
  5  6  2  0
  6  7  1  0
  7  8  2  0
  9  8  1  1
  9 10  1  0
 10 11  1  0
 11 12  1  0
 12 13  1  0
  8  4  1  0
 13  9  1  0
M  END
>  <HIPPO Pose ID>  (80) 
6290

>  <scratch_subdir>  (80) 
/opt/xchem-fragalysis-2/maxwin/BulkDock/SCRATCH/350562/C6162-P53

>  <ref_mols>  (80) 
7gpf-a,7gpm-a

>  <original SMILES>  (80) 
CCCn1cnnc1[C@@H]1CCCN1

>  <HIPPO Compound ID>  (80) 
6162

>  <original ID>  (80) 
RYZATMLABHKSAN-QMMMGPOBSA-N

>  <alias>  (80) 
None

>  <fragmenstein_runtime>  (80) 
1.177192

>  <score_inspiration>  (80) 
0.538039

>  <name>  (80) 
RYZATMLABHKSAN-QMMMGPOBSA-N

>  <fragmenstein_mode>  (80) 
expansion

>  <fragmenstein_error>  (80) 
None

>  <fragmenstein_outcome>  (80) 
acceptable

>  <inchikey>  (80) 
RYZATMLABHKSAN-QMMMGPOBSA-N

>  <tags>  (80) 
Fragmenstein placed

>  <SLURM_JOB_ID>  (80) 
350562

>  <energy_score>  (80) 
-23.977191

>  <ref_pdb>  (80) 
7gpf-a

>  <distance_score>  (80) 
0.776172

>  <csv_name>  (80) 
D68EV3C_iter1_knitwork_pure_split1000_batch001.csv

$$$$
6291
     RDKit          3D

 13 14  0  0  0  0  0  0  0  0999 V2000
    0.6908    5.7930   28.0046 C   0  0  0  0  0  0  0  0  0  0  0  0
   -0.4868    5.0224   27.4279 C   0  0  0  0  0  0  0  0  0  0  0  0
   -0.3858    3.5284   27.7593 C   0  0  0  0  0  0  0  0  0  0  0  0
   -1.4611    2.7002   27.2556 N   0  0  0  0  0  0  0  0  0  0  0  0
   -2.5707    3.1382   26.5979 C   0  0  0  0  0  0  0  0  0  0  0  0
   -3.2743    2.1160   26.1858 N   0  0  0  0  0  0  0  0  0  0  0  0
   -2.6359    0.9829   26.5894 N   0  0  0  0  0  0  0  0  0  0  0  0
   -1.5797    1.3266   27.2980 C   0  0  0  0  0  0  0  0  0  0  0  0
   -0.7671    0.3316   28.0499 C   0  0  2  0  0  0  0  0  0  0  0  0
   -1.2787    0.1246   29.4787 C   0  0  0  0  0  0  0  0  0  0  0  0
   -0.0646    0.3651   30.3586 C   0  0  0  0  0  0  0  0  0  0  0  0
    1.0962    0.0780   29.4298 C   0  0  0  0  0  0  0  0  0  0  0  0
    0.6540    0.6729   28.1722 N   0  0  0  0  0  0  0  0  0  0  0  0
  1  2  1  0
  2  3  1  0
  3  4  1  0
  4  5  1  0
  5  6  2  0
  6  7  1  0
  7  8  2  0
  9  8  1  1
  9 10  1  0
 10 11  1  0
 11 12  1  0
 12 13  1  0
  8  4  1  0
 13  9  1  0
M  END
>  <HIPPO Pose ID>  (81) 
6291

>  <scratch_subdir>  (81) 
/opt/xchem-fragalysis-2/maxwin/BulkDock/SCRATCH/350562/C6162-P70

>  <ref_mols>  (81) 
7gpf-a,7gpm-a

>  <original SMILES>  (81) 
CCCn1cnnc1[C@@H]1CCCN1

>  <HIPPO Compound ID>  (81) 
6162

>  <original ID>  (81) 
RYZATMLABHKSAN-QMMMGPOBSA-N

>  <alias>  (81) 
None

>  <fragmenstein_runtime>  (81) 
1.189171

>  <score_inspiration>  (81) 
0.531279

>  <name>  (81) 
RYZATMLABHKSAN-QMMMGPOBSA-N

>  <fragmenstein_mode>  (81) 
expansion

>  <fragmenstein_error>  (81) 
None

>  <fragmenstein_outcome>  (81) 
acceptable

>  <inchikey>  (81) 
RYZATMLABHKSAN-QMMMGPOBSA-N

>  <tags>  (81) 
Fragmenstein placed

>  <SLURM_JOB_ID>  (81) 
350562

>  <energy_score>  (81) 
-23.833928

>  <ref_pdb>  (81) 
7gpm-a

>  <distance_score>  (81) 
0.745434

>  <csv_name>  (81) 
D68EV3C_iter1_knitwork_pure_split1000_batch001.csv

$$$$
6382
     RDKit          3D

 20 22  0  0  0  0  0  0  0  0999 V2000
    3.8363    6.2868   23.4745 C   0  0  0  0  0  0  0  0  0  0  0  0
    3.1590    6.7210   24.7716 C   0  0  0  0  0  0  0  0  0  0  0  0
    3.8194    7.9690   25.3503 C   0  0  0  0  0  0  0  0  0  0  0  0
    3.1949    5.5849   25.7946 C   0  0  0  0  0  0  0  0  0  0  0  0
    1.8757    5.0829   26.2883 C   0  0  0  0  0  0  0  0  0  0  0  0
    1.8522    4.0817   27.1967 C   0  0  0  0  0  0  0  0  0  0  0  0
    0.6276    3.5474   27.7037 N   0  0  0  0  0  0  0  0  0  0  0  0
   -0.6775    4.1054   27.2961 C   0  0  0  0  0  0  0  0  0  0  0  0
    0.5375    2.7416   28.9560 C   0  0  0  0  0  0  0  0  0  0  0  0
    0.5470    1.2007   28.7138 C   0  0  1  0  0  0  0  0  0  0  0  0
    0.0057    0.4366   29.9284 C   0  0  0  0  0  0  0  0  0  0  0  0
   -1.2885   -0.2213   29.4611 C   0  0  0  0  0  0  0  0  0  0  0  0
   -1.6097    0.4477   28.1417 C   0  0  0  0  0  0  0  0  0  0  0  0
   -0.2947    0.7465   27.5946 N   0  0  0  0  0  0  0  0  0  0  0  0
    3.1281    3.5846   27.6084 N   0  0  0  0  0  0  0  0  0  0  0  0
    3.4548    2.6065   28.5055 N   0  0  0  0  0  0  0  0  0  0  0  0
    4.7815    2.5770   28.4354 C   0  0  0  0  0  0  0  0  0  0  0  0
    5.3560    3.4716   27.5966 N   0  0  0  0  0  0  0  0  0  0  0  0
    4.3277    4.1094   27.0802 C   0  0  0  0  0  0  0  0  0  0  0  0
    4.3484    5.1229   26.1708 N   0  0  0  0  0  0  0  0  0  0  0  0
  1  2  1  0
  2  3  1  0
  2  4  1  0
  4  5  1  0
  5  6  2  0
  6  7  1  0
  7  8  1  0
  7  9  1  0
 10  9  1  1
 10 11  1  0
 11 12  1  0
 12 13  1  0
 13 14  1  0
  6 15  1  0
 15 16  1  0
 16 17  2  0
 17 18  1  0
 18 19  2  0
 19 20  1  0
 20  4  2  0
 14 10  1  0
 19 15  1  0
M  END
>  <HIPPO Pose ID>  (82) 
6382

>  <scratch_subdir>  (82) 
/opt/xchem-fragalysis-2/maxwin/BulkDock/SCRATCH/350562/C6189-P53

>  <ref_mols>  (82) 
7gpf-a,7gpm-a

>  <original SMILES>  (82) 
CC(C)c1cc(N(C)C[C@H]2CCCN2)n2ncnc2n1

>  <HIPPO Compound ID>  (82) 
6189

>  <original ID>  (82) 
ZPCKMNBWRFIREG-LLVKDONJSA-N

>  <alias>  (82) 
None

>  <fragmenstein_runtime>  (82) 
1.183173

>  <score_inspiration>  (82) 
0.419712

>  <name>  (82) 
ZPCKMNBWRFIREG-LLVKDONJSA-N

>  <fragmenstein_mode>  (82) 
expansion

>  <fragmenstein_error>  (82) 
None

>  <fragmenstein_outcome>  (82) 
acceptable

>  <inchikey>  (82) 
ZPCKMNBWRFIREG-LLVKDONJSA-N

>  <tags>  (82) 
Fragmenstein placed

>  <SLURM_JOB_ID>  (82) 
350562

>  <energy_score>  (82) 
-53.086888

>  <ref_pdb>  (82) 
7gpf-a

>  <distance_score>  (82) 
0.786631

>  <csv_name>  (82) 
D68EV3C_iter1_knitwork_pure_split1000_batch001.csv

$$$$
6383
     RDKit          3D

 20 22  0  0  0  0  0  0  0  0999 V2000
    3.6903    6.4476   23.4857 C   0  0  0  0  0  0  0  0  0  0  0  0
    3.2273    6.8720   24.8769 C   0  0  0  0  0  0  0  0  0  0  0  0
    4.0755    8.0197   25.4173 C   0  0  0  0  0  0  0  0  0  0  0  0
    3.2773    5.6758   25.8280 C   0  0  0  0  0  0  0  0  0  0  0  0
    1.9686    5.1795   26.3549 C   0  0  0  0  0  0  0  0  0  0  0  0
    1.9610    4.1181   27.1922 C   0  0  0  0  0  0  0  0  0  0  0  0
    0.7516    3.5904   27.7424 N   0  0  0  0  0  0  0  0  0  0  0  0
   -0.5482    4.2407   27.4796 C   0  0  0  0  0  0  0  0  0  0  0  0
    0.7314    2.7349   28.9657 C   0  0  0  0  0  0  0  0  0  0  0  0
    0.6172    1.2088   28.6613 C   0  0  1  0  0  0  0  0  0  0  0  0
    0.0765    0.4330   29.8688 C   0  0  0  0  0  0  0  0  0  0  0  0
   -1.2558   -0.1525   29.4180 C   0  0  0  0  0  0  0  0  0  0  0  0
   -1.6019    0.6097   28.1576 C   0  0  0  0  0  0  0  0  0  0  0  0
   -0.3065    0.8760   27.5589 N   0  0  0  0  0  0  0  0  0  0  0  0
    3.2384    3.5484   27.4894 N   0  0  0  0  0  0  0  0  0  0  0  0
    3.5737    2.4839   28.2770 N   0  0  0  0  0  0  0  0  0  0  0  0
    4.8928    2.4159   28.1320 C   0  0  0  0  0  0  0  0  0  0  0  0
    5.4546    3.3638   27.3449 N   0  0  0  0  0  0  0  0  0  0  0  0
    4.4252    4.0770   26.9417 C   0  0  0  0  0  0  0  0  0  0  0  0
    4.4321    5.1555   26.1117 N   0  0  0  0  0  0  0  0  0  0  0  0
  1  2  1  0
  2  3  1  0
  2  4  1  0
  4  5  1  0
  5  6  2  0
  6  7  1  0
  7  8  1  0
  7  9  1  0
 10  9  1  1
 10 11  1  0
 11 12  1  0
 12 13  1  0
 13 14  1  0
  6 15  1  0
 15 16  1  0
 16 17  2  0
 17 18  1  0
 18 19  2  0
 19 20  1  0
 20  4  2  0
 14 10  1  0
 19 15  1  0
M  END
>  <HIPPO Pose ID>  (83) 
6383

>  <scratch_subdir>  (83) 
/opt/xchem-fragalysis-2/maxwin/BulkDock/SCRATCH/350562/C6189-P70

>  <ref_mols>  (83) 
7gpf-a,7gpm-a

>  <original SMILES>  (83) 
CC(C)c1cc(N(C)C[C@H]2CCCN2)n2ncnc2n1

>  <HIPPO Compound ID>  (83) 
6189

>  <original ID>  (83) 
ZPCKMNBWRFIREG-LLVKDONJSA-N

>  <alias>  (83) 
None

>  <fragmenstein_runtime>  (83) 
1.41047

>  <score_inspiration>  (83) 
0.405683

>  <name>  (83) 
ZPCKMNBWRFIREG-LLVKDONJSA-N

>  <fragmenstein_mode>  (83) 
expansion

>  <fragmenstein_error>  (83) 
None

>  <fragmenstein_outcome>  (83) 
acceptable

>  <inchikey>  (83) 
ZPCKMNBWRFIREG-LLVKDONJSA-N

>  <tags>  (83) 
Fragmenstein placed

>  <SLURM_JOB_ID>  (83) 
350562

>  <energy_score>  (83) 
-52.744434

>  <ref_pdb>  (83) 
7gpm-a

>  <distance_score>  (83) 
0.784929

>  <csv_name>  (83) 
D68EV3C_iter1_knitwork_pure_split1000_batch001.csv

$$$$
6406
     RDKit          3D

 23 25  0  0  0  0  0  0  0  0999 V2000
   -2.7807   -2.8240   31.6435 O   0  0  0  0  0  0  0  0  0  0  0  0
   -2.1734   -1.8964   32.0190 C   0  0  0  0  0  0  0  0  0  0  0  0
   -2.2920   -1.0817   33.3392 N   0  0  0  0  0  0  0  0  0  0  0  0
   -3.2473   -1.1837   34.4266 C   0  0  0  0  0  0  0  0  0  0  0  0
   -4.6945   -1.1109   33.9341 C   0  0  0  0  0  0  0  0  0  0  0  0
   -5.7074   -0.9356   35.0051 C   0  0  0  0  0  0  0  0  0  0  0  0
   -7.0113   -0.4990   34.9920 C   0  0  0  0  0  0  0  0  0  0  0  0
   -7.4037   -0.5473   36.3383 C   0  0  0  0  0  0  0  0  0  0  0  0
   -6.4311   -1.0109   37.1265 N   0  0  0  0  0  0  0  0  0  0  0  0
   -5.3574   -1.2526   36.2818 O   0  0  0  0  0  0  0  0  0  0  0  0
   -1.0053   -1.3088   31.1409 C   0  0  0  0  0  0  0  0  0  0  0  0
   -1.3642   -1.5904   29.6628 C   0  0  0  0  0  0  0  0  0  0  0  0
   -0.3950   -0.9505   28.6792 C   0  0  0  0  0  0  0  0  0  0  0  0
   -0.3033    0.5003   28.9178 N   0  0  0  0  0  0  0  0  0  0  0  0
   -1.0513    1.3873   28.1238 C   0  0  0  0  0  0  0  0  0  0  0  0
   -0.6830    2.6710   27.9330 C   0  0  0  0  0  0  0  0  0  0  0  0
   -1.4474    3.5118   26.9907 C   0  0  0  0  0  0  0  0  0  0  0  0
   -1.1053    4.6474   26.6873 O   0  0  0  0  0  0  0  0  0  0  0  0
   -2.5371    2.9315   26.4403 N   0  0  0  0  0  0  0  0  0  0  0  0
   -2.8400    1.6435   26.7077 C   0  0  0  0  0  0  0  0  0  0  0  0
   -2.1656    0.8859   27.4948 N   0  0  0  0  0  0  0  0  0  0  0  0
    0.2092    0.8051   30.2434 C   0  0  0  0  0  0  0  0  0  0  0  0
   -0.6926    0.1857   31.3169 C   0  0  0  0  0  0  0  0  0  0  0  0
  1  2  2  0
  2  3  1  0
  3  4  1  0
  4  5  1  0
  5  6  1  0
  6  7  2  0
  7  8  1  0
  8  9  2  0
  9 10  1  0
  2 11  1  0
 11 12  1  0
 12 13  1  0
 13 14  1  0
 14 15  1  0
 15 16  2  0
 16 17  1  0
 17 18  2  0
 17 19  1  0
 19 20  1  0
 20 21  2  0
 14 22  1  0
 22 23  1  0
 10  6  1  0
 23 11  1  0
 21 15  1  0
M  END
>  <HIPPO Pose ID>  (84) 
6406

>  <scratch_subdir>  (84) 
/opt/xchem-fragalysis-2/maxwin/BulkDock/SCRATCH/350563/C2845-P59

>  <ref_mols>  (84) 
7gp2-a,7goy-a

>  <original SMILES>  (84) 
O=C(NCCc1ccno1)C1CCN(c2cc(=O)[nH]cn2)CC1

>  <HIPPO Compound ID>  (84) 
2845

>  <original ID>  (84) 
HCYWIZPHWLZGBJ-UHFFFAOYSA-N

>  <alias>  (84) 
None

>  <fragmenstein_runtime>  (84) 
3.06181

>  <score_inspiration>  (84) 
0.451524

>  <name>  (84) 
HCYWIZPHWLZGBJ-UHFFFAOYSA-N

>  <fragmenstein_mode>  (84) 
expansion

>  <fragmenstein_error>  (84) 
None

>  <fragmenstein_outcome>  (84) 
acceptable

>  <inchikey>  (84) 
HCYWIZPHWLZGBJ-UHFFFAOYSA-N

>  <tags>  (84) 
Fragmenstein placed

>  <SLURM_JOB_ID>  (84) 
350563

>  <energy_score>  (84) 
-17.760203

>  <ref_pdb>  (84) 
7goy-a

>  <distance_score>  (84) 
0.9201

>  <csv_name>  (84) 
D68EV3C_iter1_knitwork_pure_split1000_batch002.csv

$$$$
6746
     RDKit          3D

 13 13  0  0  0  0  0  0  0  0999 V2000
   -2.1676   -0.5706   32.0050 C   0  0  0  0  0  0  0  0  0  0  0  0
   -0.9333   -1.4231   32.2023 C   0  0  0  0  0  0  0  0  0  0  0  0
   -0.9728   -2.9297   31.2509 S   0  0  0  0  0  0  0  0  0  0  0  0
   -2.2135   -3.6119   31.5550 O   0  0  0  0  0  0  0  0  0  0  0  0
    0.2961   -3.6077   31.3971 O   0  0  0  0  0  0  0  0  0  0  0  0
   -1.1079   -2.3852   29.6785 N   0  0  0  0  0  0  0  0  0  0  0  0
    0.1052   -1.9692   28.9622 C   0  0  0  0  0  0  0  0  0  0  0  0
   -0.0630   -0.6896   28.1466 C   0  0  1  0  0  0  0  0  0  0  0  0
   -1.4690   -0.2608   27.7626 C   0  0  0  0  0  0  0  0  0  0  0  0
   -1.2756    1.0852   27.1929 N   0  0  0  0  0  0  0  0  0  0  0  0
   -0.1482    1.6953   27.9095 C   0  0  0  0  0  0  0  0  0  0  0  0
    0.4899    0.5907   28.7647 C   0  0  1  0  0  0  0  0  0  0  0  0
    0.0936    0.7420   30.1272 O   0  0  0  0  0  0  0  0  0  0  0  0
  1  2  1  0
  2  3  1  0
  3  4  2  0
  3  5  2  0
  3  6  1  0
  6  7  1  0
  8  7  1  1
  8  9  1  0
  9 10  1  0
 10 11  1  0
 11 12  1  0
 12 13  1  1
 12  8  1  0
M  END
>  <HIPPO Pose ID>  (85) 
6746

>  <scratch_subdir>  (85) 
/opt/xchem-fragalysis-2/maxwin/BulkDock/SCRATCH/350561/C1766-P13

>  <ref_mols>  (85) 
7gp9-a,7gpm-a

>  <original SMILES>  (85) 
CCS(=O)(=O)NC[C@H]1CNC[C@H]1O

>  <HIPPO Compound ID>  (85) 
1766

>  <original ID>  (85) 
LOAWCJOMTAVJOY-RNFRBKRXSA-N

>  <alias>  (85) 
None

>  <fragmenstein_runtime>  (85) 
1.072921

>  <score_inspiration>  (85) 
0.660145

>  <name>  (85) 
LOAWCJOMTAVJOY-RNFRBKRXSA-N

>  <fragmenstein_mode>  (85) 
expansion

>  <fragmenstein_error>  (85) 
None

>  <fragmenstein_outcome>  (85) 
acceptable

>  <inchikey>  (85) 
LOAWCJOMTAVJOY-RNFRBKRXSA-N

>  <tags>  (85) 
Fragmenstein placed

>  <SLURM_JOB_ID>  (85) 
350561

>  <energy_score>  (85) 
-34.677784

>  <ref_pdb>  (85) 
7gp9-a

>  <distance_score>  (85) 
0.667183

>  <csv_name>  (85) 
D68EV3C_iter1_knitwork_pure_split1000_batch000.csv

$$$$
6749
     RDKit          3D

 13 13  0  0  0  0  0  0  0  0999 V2000
   -2.1535   -0.5197   31.9782 C   0  0  0  0  0  0  0  0  0  0  0  0
   -0.9540   -1.4213   32.1787 C   0  0  0  0  0  0  0  0  0  0  0  0
   -1.0435   -2.9377   31.2376 S   0  0  0  0  0  0  0  0  0  0  0  0
   -2.3244   -3.5635   31.4947 O   0  0  0  0  0  0  0  0  0  0  0  0
    0.1868   -3.6786   31.4154 O   0  0  0  0  0  0  0  0  0  0  0  0
   -1.1090   -2.4098   29.6570 N   0  0  0  0  0  0  0  0  0  0  0  0
    0.1289   -1.9858   28.9894 C   0  0  0  0  0  0  0  0  0  0  0  0
   -0.0425   -0.7233   28.1478 C   0  0  1  0  0  0  0  0  0  0  0  0
   -1.4549   -0.2454   27.8509 C   0  0  0  0  0  0  0  0  0  0  0  0
   -1.2539    1.0683   27.2158 N   0  0  0  0  0  0  0  0  0  0  0  0
   -0.0520    1.6503   27.8411 C   0  0  0  0  0  0  0  0  0  0  0  0
    0.5757    0.5508   28.7129 C   0  0  1  0  0  0  0  0  0  0  0  0
    0.2048    0.7467   30.0801 O   0  0  0  0  0  0  0  0  0  0  0  0
  1  2  1  0
  2  3  1  0
  3  4  2  0
  3  5  2  0
  3  6  1  0
  6  7  1  0
  8  7  1  1
  8  9  1  0
  9 10  1  0
 10 11  1  0
 11 12  1  0
 12 13  1  1
 12  8  1  0
M  END
>  <HIPPO Pose ID>  (86) 
6749

>  <scratch_subdir>  (86) 
/opt/xchem-fragalysis-2/maxwin/BulkDock/SCRATCH/350561/C1766-P70

>  <ref_mols>  (86) 
7gp9-a,7gpm-a

>  <original SMILES>  (86) 
CCS(=O)(=O)NC[C@H]1CNC[C@H]1O

>  <HIPPO Compound ID>  (86) 
1766

>  <original ID>  (86) 
LOAWCJOMTAVJOY-RNFRBKRXSA-N

>  <alias>  (86) 
None

>  <fragmenstein_runtime>  (86) 
1.308309

>  <score_inspiration>  (86) 
0.657564

>  <name>  (86) 
LOAWCJOMTAVJOY-RNFRBKRXSA-N

>  <fragmenstein_mode>  (86) 
expansion

>  <fragmenstein_error>  (86) 
None

>  <fragmenstein_outcome>  (86) 
acceptable

>  <inchikey>  (86) 
LOAWCJOMTAVJOY-RNFRBKRXSA-N

>  <tags>  (86) 
Fragmenstein placed

>  <SLURM_JOB_ID>  (86) 
350561

>  <energy_score>  (86) 
-34.449301

>  <ref_pdb>  (86) 
7gpm-a

>  <distance_score>  (86) 
0.663098

>  <csv_name>  (86) 
D68EV3C_iter1_knitwork_pure_split1000_batch000.csv

$$$$
6859
     RDKit          3D

 16 16  0  0  0  0  0  0  0  0999 V2000
   -2.1961   -0.5751   31.9242 C   0  0  0  0  0  0  0  0  0  0  0  0
   -0.9382   -1.3939   32.1103 C   0  0  0  0  0  0  0  0  0  0  0  0
   -0.9792   -2.9400   31.2195 S   0  0  0  0  0  0  0  0  0  0  0  0
   -2.1920   -3.6372   31.5896 O   0  0  0  0  0  0  0  0  0  0  0  0
    0.3118   -3.5771   31.3430 O   0  0  0  0  0  0  0  0  0  0  0  0
   -1.1891   -2.4577   29.6315 N   0  0  0  0  0  0  0  0  0  0  0  0
   -0.0415   -1.9748   28.8547 C   0  0  0  0  0  0  0  0  0  0  0  0
   -0.0861   -0.4577   28.7212 C   0  0  1  0  0  0  0  0  0  0  0  0
    1.1717    0.0865   28.0598 C   0  0  0  0  0  0  0  0  0  0  0  0
    0.7281    1.4523   27.5792 C   0  0  0  0  0  0  0  0  0  0  0  0
   -0.6497    1.2163   27.0816 N   0  0  0  0  0  0  0  0  0  0  0  0
   -1.5372    2.6324   26.8451 S   0  0  0  0  0  0  0  0  0  0  0  0
   -3.1224    2.0679   26.3065 C   0  0  0  0  0  0  0  0  0  0  0  0
   -1.6708    3.2591   28.1374 O   0  0  0  0  0  0  0  0  0  0  0  0
   -0.9154    3.3171   25.7324 O   0  0  0  0  0  0  0  0  0  0  0  0
   -1.2321    0.0849   27.8566 C   0  0  0  0  0  0  0  0  0  0  0  0
  1  2  1  0
  2  3  1  0
  3  4  2  0
  3  5  2  0
  3  6  1  0
  6  7  1  0
  8  7  1  6
  8  9  1  0
  9 10  1  0
 10 11  1  0
 11 12  1  0
 12 13  1  0
 12 14  2  0
 12 15  2  0
 11 16  1  0
 16  8  1  0
M  END
>  <HIPPO Pose ID>  (87) 
6859

>  <scratch_subdir>  (87) 
/opt/xchem-fragalysis-2/maxwin/BulkDock/SCRATCH/350561/C1807-P13

>  <ref_mols>  (87) 
7gp9-a,7gpm-a

>  <original SMILES>  (87) 
CCS(=O)(=O)NC[C@H]1CCN(S(C)(=O)=O)C1

>  <HIPPO Compound ID>  (87) 
1807

>  <original ID>  (87) 
QSJLQFDQGYUYAC-MRVPVSSYSA-N

>  <alias>  (87) 
None

>  <fragmenstein_runtime>  (87) 
1.980602

>  <score_inspiration>  (87) 
0.739114

>  <name>  (87) 
QSJLQFDQGYUYAC-MRVPVSSYSA-N

>  <fragmenstein_mode>  (87) 
expansion

>  <fragmenstein_error>  (87) 
None

>  <fragmenstein_outcome>  (87) 
acceptable

>  <inchikey>  (87) 
QSJLQFDQGYUYAC-MRVPVSSYSA-N

>  <tags>  (87) 
Fragmenstein placed

>  <SLURM_JOB_ID>  (87) 
350561

>  <energy_score>  (87) 
-161.635692

>  <ref_pdb>  (87) 
7gp9-a

>  <distance_score>  (87) 
0.932941

>  <csv_name>  (87) 
D68EV3C_iter1_knitwork_pure_split1000_batch000.csv

$$$$
6862
     RDKit          3D

 16 16  0  0  0  0  0  0  0  0999 V2000
   -2.1674   -0.5070   31.8944 C   0  0  0  0  0  0  0  0  0  0  0  0
   -0.9604   -1.3970   32.1002 C   0  0  0  0  0  0  0  0  0  0  0  0
   -1.0605   -2.9391   31.1989 S   0  0  0  0  0  0  0  0  0  0  0  0
   -2.3223   -3.5757   31.5125 O   0  0  0  0  0  0  0  0  0  0  0  0
    0.1878   -3.6533   31.3466 O   0  0  0  0  0  0  0  0  0  0  0  0
   -1.2017   -2.4504   29.6042 N   0  0  0  0  0  0  0  0  0  0  0  0
   -0.0167   -2.0009   28.8619 C   0  0  0  0  0  0  0  0  0  0  0  0
   -0.0090   -0.4801   28.7468 C   0  0  1  0  0  0  0  0  0  0  0  0
    1.2174    0.0086   27.9919 C   0  0  0  0  0  0  0  0  0  0  0  0
    0.7884    1.3736   27.4952 C   0  0  0  0  0  0  0  0  0  0  0  0
   -0.6363    1.1783   27.1073 N   0  0  0  0  0  0  0  0  0  0  0  0
   -1.4666    2.6352   26.8868 S   0  0  0  0  0  0  0  0  0  0  0  0
   -3.1192    2.1442   26.5093 C   0  0  0  0  0  0  0  0  0  0  0  0
   -1.4615    3.3145   28.1591 O   0  0  0  0  0  0  0  0  0  0  0  0
   -0.9168    3.2300   25.6887 O   0  0  0  0  0  0  0  0  0  0  0  0
   -1.1992    0.1188   27.9840 C   0  0  0  0  0  0  0  0  0  0  0  0
  1  2  1  0
  2  3  1  0
  3  4  2  0
  3  5  2  0
  3  6  1  0
  6  7  1  0
  8  7  1  6
  8  9  1  0
  9 10  1  0
 10 11  1  0
 11 12  1  0
 12 13  1  0
 12 14  2  0
 12 15  2  0
 11 16  1  0
 16  8  1  0
M  END
>  <HIPPO Pose ID>  (88) 
6862

>  <scratch_subdir>  (88) 
/opt/xchem-fragalysis-2/maxwin/BulkDock/SCRATCH/350561/C1807-P70

>  <ref_mols>  (88) 
7gp9-a,7gpm-a

>  <original SMILES>  (88) 
CCS(=O)(=O)NC[C@H]1CCN(S(C)(=O)=O)C1

>  <HIPPO Compound ID>  (88) 
1807

>  <original ID>  (88) 
QSJLQFDQGYUYAC-MRVPVSSYSA-N

>  <alias>  (88) 
None

>  <fragmenstein_runtime>  (88) 
1.790815

>  <score_inspiration>  (88) 
0.714905

>  <name>  (88) 
QSJLQFDQGYUYAC-MRVPVSSYSA-N

>  <fragmenstein_mode>  (88) 
expansion

>  <fragmenstein_error>  (88) 
None

>  <fragmenstein_outcome>  (88) 
acceptable

>  <inchikey>  (88) 
QSJLQFDQGYUYAC-MRVPVSSYSA-N

>  <tags>  (88) 
Fragmenstein placed

>  <SLURM_JOB_ID>  (88) 
350561

>  <energy_score>  (88) 
-160.100846

>  <ref_pdb>  (88) 
7gpm-a

>  <distance_score>  (88) 
0.948581

>  <csv_name>  (88) 
D68EV3C_iter1_knitwork_pure_split1000_batch000.csv

$$$$
6883
     RDKit          3D

 16 16  0  0  0  0  0  0  0  0999 V2000
   -2.1980   -0.6378   31.9286 C   0  0  0  0  0  0  0  0  0  0  0  0
   -0.9206   -1.4287   32.1034 C   0  0  0  0  0  0  0  0  0  0  0  0
   -0.9090   -2.9584   31.1812 S   0  0  0  0  0  0  0  0  0  0  0  0
   -2.1031   -3.6947   31.5426 O   0  0  0  0  0  0  0  0  0  0  0  0
    0.3969   -3.5635   31.3169 O   0  0  0  0  0  0  0  0  0  0  0  0
   -1.1131   -2.4862   29.5990 N   0  0  0  0  0  0  0  0  0  0  0  0
   -0.0066   -1.9254   28.8113 C   0  0  0  0  0  0  0  0  0  0  0  0
   -0.0773   -0.4068   28.8006 C   0  0  1  0  0  0  0  0  0  0  0  0
    1.0896    0.2890   28.0971 C   0  0  0  0  0  0  0  0  0  0  0  0
    0.5108    1.6356   27.6445 C   0  0  0  0  0  0  0  0  0  0  0  0
   -0.8670    1.5963   28.1118 N   0  0  0  0  0  0  0  0  0  0  0  0
   -1.7816    2.5811   27.5142 C   0  0  0  0  0  0  0  0  0  0  0  0
   -2.4766    2.3332   26.1734 C   0  0  0  0  0  0  0  0  0  0  0  0
   -2.9921    1.0823   26.1201 F   0  0  0  0  0  0  0  0  0  0  0  0
   -1.5699    2.4321   25.1683 F   0  0  0  0  0  0  0  0  0  0  0  0
   -1.2809    0.1933   28.0865 C   0  0  0  0  0  0  0  0  0  0  0  0
  1  2  1  0
  2  3  1  0
  3  4  2  0
  3  5  2  0
  3  6  1  0
  6  7  1  0
  8  7  1  6
  8  9  1  0
  9 10  1  0
 10 11  1  0
 11 12  1  0
 12 13  1  0
 13 14  1  0
 13 15  1  0
 11 16  1  0
 16  8  1  0
M  END
>  <HIPPO Pose ID>  (89) 
6883

>  <scratch_subdir>  (89) 
/opt/xchem-fragalysis-2/maxwin/BulkDock/SCRATCH/350561/C1811-P13

>  <ref_mols>  (89) 
7gp9-a,7gpm-a

>  <original SMILES>  (89) 
CCS(=O)(=O)NC[C@H]1CCN(CC(F)F)C1

>  <HIPPO Compound ID>  (89) 
1811

>  <original ID>  (89) 
SUYQYCNUWSGNEK-MRVPVSSYSA-N

>  <alias>  (89) 
None

>  <fragmenstein_runtime>  (89) 
2.317836

>  <score_inspiration>  (89) 
0.693757

>  <name>  (89) 
SUYQYCNUWSGNEK-MRVPVSSYSA-N

>  <fragmenstein_mode>  (89) 
expansion

>  <fragmenstein_error>  (89) 
None

>  <fragmenstein_outcome>  (89) 
acceptable

>  <inchikey>  (89) 
SUYQYCNUWSGNEK-MRVPVSSYSA-N

>  <tags>  (89) 
Fragmenstein placed

>  <SLURM_JOB_ID>  (89) 
350561

>  <energy_score>  (89) 
-38.245278

>  <ref_pdb>  (89) 
7gp9-a

>  <distance_score>  (89) 
0.980721

>  <csv_name>  (89) 
D68EV3C_iter1_knitwork_pure_split1000_batch000.csv

$$$$
6885
     RDKit          3D

 16 16  0  0  0  0  0  0  0  0999 V2000
   -2.1935   -0.5436   31.8379 C   0  0  0  0  0  0  0  0  0  0  0  0
   -0.9823   -1.4164   32.0857 C   0  0  0  0  0  0  0  0  0  0  0  0
   -1.0235   -2.9612   31.1854 S   0  0  0  0  0  0  0  0  0  0  0  0
   -2.2804   -3.6185   31.4778 O   0  0  0  0  0  0  0  0  0  0  0  0
    0.2357   -3.6424   31.3853 O   0  0  0  0  0  0  0  0  0  0  0  0
   -1.1245   -2.4946   29.5845 N   0  0  0  0  0  0  0  0  0  0  0  0
    0.0672   -2.0320   28.8585 C   0  0  0  0  0  0  0  0  0  0  0  0
    0.0756   -0.5121   28.8003 C   0  0  1  0  0  0  0  0  0  0  0  0
    1.3601    0.0708   28.2381 C   0  0  0  0  0  0  0  0  0  0  0  0
    0.9262    1.4831   27.8978 C   0  0  0  0  0  0  0  0  0  0  0  0
   -0.3782    1.2707   27.2715 N   0  0  0  0  0  0  0  0  0  0  0  0
   -1.2066    2.4898   27.2642 C   0  0  0  0  0  0  0  0  0  0  0  0
   -2.3505    2.4276   26.2581 C   0  0  0  0  0  0  0  0  0  0  0  0
   -3.1789    1.3909   26.5309 F   0  0  0  0  0  0  0  0  0  0  0  0
   -3.0763    3.5606   26.3059 F   0  0  0  0  0  0  0  0  0  0  0  0
   -1.0228    0.1247   27.9452 C   0  0  0  0  0  0  0  0  0  0  0  0
  1  2  1  0
  2  3  1  0
  3  4  2  0
  3  5  2  0
  3  6  1  0
  6  7  1  0
  8  7  1  6
  8  9  1  0
  9 10  1  0
 10 11  1  0
 11 12  1  0
 12 13  1  0
 13 14  1  0
 13 15  1  0
 11 16  1  0
 16  8  1  0
M  END
>  <HIPPO Pose ID>  (90) 
6885

>  <scratch_subdir>  (90) 
/opt/xchem-fragalysis-2/maxwin/BulkDock/SCRATCH/350561/C1811-P70

>  <ref_mols>  (90) 
7gp9-a,7gpm-a

>  <original SMILES>  (90) 
CCS(=O)(=O)NC[C@H]1CCN(CC(F)F)C1

>  <HIPPO Compound ID>  (90) 
1811

>  <original ID>  (90) 
SUYQYCNUWSGNEK-MRVPVSSYSA-N

>  <alias>  (90) 
None

>  <fragmenstein_runtime>  (90) 
2.31887

>  <score_inspiration>  (90) 
0.690224

>  <name>  (90) 
SUYQYCNUWSGNEK-MRVPVSSYSA-N

>  <fragmenstein_mode>  (90) 
expansion

>  <fragmenstein_error>  (90) 
None

>  <fragmenstein_outcome>  (90) 
acceptable

>  <inchikey>  (90) 
SUYQYCNUWSGNEK-MRVPVSSYSA-N

>  <tags>  (90) 
Fragmenstein placed

>  <SLURM_JOB_ID>  (90) 
350561

>  <energy_score>  (90) 
-41.648587

>  <ref_pdb>  (90) 
7gpm-a

>  <distance_score>  (90) 
0.965896

>  <csv_name>  (90) 
D68EV3C_iter1_knitwork_pure_split1000_batch000.csv

$$$$
