D68EV3CPROB-x0693_A_209_1_7gon+B+201+1__LIG
     RDKit          3D

 19 21  0  0  0  0  0  0  0  0999 V2000
   17.4940   -3.0830   17.8160 O   0  0  0  0  0  0  0  0  0  0  0  0
   17.3140   -2.0280   17.2140 C   0  0  0  0  0  0  0  0  0  0  0  0
   18.4550   -1.0550   16.9970 C   0  0  0  0  0  0  0  0  0  0  0  0
   19.0720   -1.2150   15.6030 C   0  0  0  0  0  0  0  0  0  0  0  0
   19.3110   -0.1810   14.7750 N   0  0  0  0  0  0  0  0  0  0  0  0
   19.8690   -0.6060   13.6070 N   0  0  0  0  0  0  0  0  0  0  0  0
   19.9730   -1.9230   13.7260 C   0  0  0  0  0  0  0  0  0  0  0  0
   19.4820   -2.3530   14.9560 C   0  0  0  0  0  0  0  0  0  0  0  0
   16.1210   -1.6420   16.6960 N   0  0  0  0  0  0  0  0  0  0  0  0
   14.9000   -2.3670   16.6170 C   0  0  0  0  0  0  0  0  0  0  0  0
   14.0730   -2.1740   15.4900 C   0  0  0  0  0  0  0  0  0  0  0  0
   14.5210   -1.2830   14.3520 C   0  0  0  0  0  0  0  0  0  0  0  0
   13.6630   -1.4840   13.1250 C   0  0  0  0  0  0  0  0  0  0  0  0
   12.2360   -1.4840   13.4620 N   0  0  0  0  0  0  0  0  0  0  0  0
   11.9040   -2.6540   14.2750 C   0  0  0  0  0  0  0  0  0  0  0  0
   12.8300   -2.8240   15.4520 C   0  0  0  0  0  0  0  0  0  0  0  0
   12.4430   -3.6380   16.5140 C   0  0  0  0  0  0  0  0  0  0  0  0
   13.2710   -3.8260   17.6050 C   0  0  0  0  0  0  0  0  0  0  0  0
   14.5030   -3.1980   17.6640 C   0  0  0  0  0  0  0  0  0  0  0  0
  2  1  2  0
  3  2  1  0
  4  3  1  0
  4  8  2  0
  8  7  1  0
  7  6  2  0
  6  5  1  0
  5  4  1  0
  9  2  1  0
 10  9  1  0
 10 19  1  0
 19 18  2  0
 18 17  1  0
 17 16  2  0
 16 11  1  0
 11 10  2  0
 12 11  1  0
 13 12  1  0
 14 13  1  0
 15 14  1  0
 16 15  1  0
M  END
$$$$
