D68EV3CPROB-x0446_A_209_1_7gp9+A+201+1__LIG
     RDKit          3D

 19 20  0  0  0  0  0  0  0  0999 V2000
   -1.9890   -3.5900   31.6130 O   0  0  0  0  0  0  0  0  0  0  0  0
   -0.9560   -3.5150   30.9650 C   0  0  0  0  0  0  0  0  0  0  0  0
    0.1430   -4.2040   31.3370 N   0  0  0  0  0  0  0  0  0  0  0  0
    0.3590   -4.5740   32.7270 C   0  0  0  0  0  0  0  0  0  0  0  0
    0.7730   -6.0330   32.8410 C   0  0  0  0  0  0  0  0  0  0  0  0
   -0.2440   -6.9810   32.3150 N   0  0  0  0  0  0  0  0  0  0  0  0
   -0.4260   -7.3720   31.0330 C   0  0  0  0  0  0  0  0  0  0  0  0
   -1.3950   -8.2460   30.9470 N   0  0  0  0  0  0  0  0  0  0  0  0
   -1.8720   -8.4410   32.2370 N   0  0  0  0  0  0  0  0  0  0  0  0
   -1.1600   -7.6770   33.0230 C   0  0  0  0  0  0  0  0  0  0  0  0
   -0.8660   -2.7480   29.8220 N   0  0  0  0  0  0  0  0  0  0  0  0
    0.3320   -2.6860   28.9900 C   0  0  0  0  0  0  0  0  0  0  0  0
   -1.9740   -1.8900   29.3800 C   0  0  0  0  0  0  0  0  0  0  0  0
   -1.5580   -0.4710   29.0590 C   0  0  0  0  0  0  0  0  0  0  0  0
   -1.8910    0.1080   27.8400 C   0  0  0  0  0  0  0  0  0  0  0  0
   -1.5610    1.4280   27.5630 C   0  0  0  0  0  0  0  0  0  0  0  0
   -0.8700    2.1760   28.4900 C   0  0  0  0  0  0  0  0  0  0  0  0
   -0.5200    1.6110   29.7010 C   0  0  0  0  0  0  0  0  0  0  0  0
   -0.8690    0.2980   29.9880 C   0  0  0  0  0  0  0  0  0  0  0  0
 12 11  1  0
 13 11  1  0
 14 13  1  0
 14 19  2  0
 19 18  1  0
 18 17  2  0
 17 16  1  0
 16 15  2  0
 15 14  1  0
 11  2  1  0
  2  1  2  0
  3  2  1  0
  4  3  1  0
  5  4  1  0
  6  5  1  0
  6 10  1  0
 10  9  2  0
  9  8  1  0
  8  7  2  0
  7  6  1  0
M  END
$$$$
