7god_B_201_1_7gon+B+201+1__LIG
     RDKit          3D

 15 15  0  0  0  0  0  0  0  0999 V2000
   14.1040   -2.8480   18.1710 N   0  0  0  0  0  0  0  0  0  0  0  0
   13.8540   -0.3380   16.9480 C   0  0  0  0  0  0  0  0  0  0  0  0
   13.3580    1.0640   16.6610 C   0  0  0  0  0  0  0  0  0  0  0  0
   13.4130   -2.8020   17.0070 C   0  0  0  0  0  0  0  0  0  0  0  0
   15.0270   -3.8450   18.5650 C   0  0  0  0  0  0  0  0  0  0  0  0
   16.0180   -4.2810   17.6820 C   0  0  0  0  0  0  0  0  0  0  0  0
   17.0730   -5.5010   19.4590 C   0  0  0  0  0  0  0  0  0  0  0  0
   11.3110   -2.4570   14.8860 C   0  0  0  0  0  0  0  0  0  0  0  0
   12.3700   -1.4310   15.2090 C   0  0  0  0  0  0  0  0  0  0  0  0
   12.8140   -1.4420   16.6800 C   0  0  0  0  0  0  0  0  0  0  0  0
   13.3680   -3.7360   16.2100 O   0  0  0  0  0  0  0  0  0  0  0  0
   17.0350   -5.1050   18.1360 C   0  0  0  0  0  0  0  0  0  0  0  0
   16.0760   -5.1010   20.3390 C   0  0  0  0  0  0  0  0  0  0  0  0
   15.0360   -4.2840   19.8950 C   0  0  0  0  0  0  0  0  0  0  0  0
   13.8160   -4.4910   20.4640 O   0  0  0  0  0  0  0  0  0  0  0  0
 12  6  1  0
 12  7  2  0
 11  4  2  0
  6  5  2  0
  7 13  1  0
  4  1  1  0
  4 10  1  0
  2  3  1  0
  2 10  1  0
  5  1  1  0
  5 14  1  0
 13 14  2  0
  9 10  1  0
  9  8  1  0
 14 15  1  0
M  END
$$$$
