D68EV3CPROB-x0691_A_301_1_D68EV3CPROB-x0517+A+209+1__LIG
     RDKit          3D

 22 25  0  0  0  0  0  0  0  0999 V2000
    2.1460   -7.7520   34.9900 O   0  0  0  0  0  0  0  0  0  0  0  0
    1.0180   -7.2060   35.6870 S   0  0  0  0  0  0  0  0  0  0  0  0
    0.0320   -8.1240   36.1700 O   0  0  0  0  0  0  0  0  0  0  0  0
    0.3620   -5.8350   34.9040 N   0  0  0  0  0  0  0  0  0  0  0  0
    0.0920   -5.7260   33.5070 C   0  0  0  0  0  0  0  0  0  0  0  0
   -0.6890   -6.6990   32.8620 N   0  0  0  0  0  0  0  0  0  0  0  0
   -1.4830   -7.7100   33.3280 C   0  0  0  0  0  0  0  0  0  0  0  0
   -1.9830   -8.4080   32.3430 N   0  0  0  0  0  0  0  0  0  0  0  0
   -1.5190   -7.8450   31.1560 N   0  0  0  0  0  0  0  0  0  0  0  0
   -0.7450   -6.8110   31.4760 C   0  0  0  0  0  0  0  0  0  0  0  0
   -0.0010   -5.8870   30.6950 C   0  0  0  0  0  0  0  0  0  0  0  0
    0.7300   -4.9040   31.3110 C   0  0  0  0  0  0  0  0  0  0  0  0
    0.7790   -4.8010   32.7270 C   0  0  0  0  0  0  0  0  0  0  0  0
    0.1870   -4.6050   35.7290 C   0  0  0  0  0  0  0  0  0  0  0  0
    0.4480   -5.0840   37.1510 C   0  0  0  0  0  0  0  0  0  0  0  0
    1.5400   -6.1490   37.0270 C   0  0  1  0  0  0  0  0  0  0  0  0
    1.8410   -7.0700   38.1870 C   0  0  0  0  0  0  0  0  0  0  0  0
    0.9140   -7.2950   39.1950 C   0  0  0  0  0  0  0  0  0  0  0  0
    1.1670   -8.2160   40.1990 C   0  0  0  0  0  0  0  0  0  0  0  0
    2.3510   -8.9180   40.2120 C   0  0  0  0  0  0  0  0  0  0  0  0
    3.2870   -8.6990   39.2220 C   0  0  0  0  0  0  0  0  0  0  0  0
    3.0350   -7.7790   38.2170 C   0  0  0  0  0  0  0  0  0  0  0  0
  3  2  2  0
  2  1  2  0
  2 16  1  0
 16 17  1  1
 17 22  2  0
 22 21  1  0
 21 20  2  0
 20 19  1  0
 19 18  2  0
 18 17  1  0
 16 15  1  0
 15 14  1  0
 14  4  1  0
  4  2  1  0
  5  4  1  0
  5 13  2  0
 13 12  1  0
 12 11  2  0
 11 10  1  0
 10  9  2  0
  9  8  1  0
  8  7  2  0
  7  6  1  0
  6  5  1  0
 10  6  1  0
M  END
$$$$
