7goz_B_201_1_7gon+B+201+1__LIG
     RDKit          3D

 15 16  0  0  0  0  0  0  0  0999 V2000
   13.0890   -1.1860   16.5640 N   0  0  0  0  0  0  0  0  0  0  0  0
   11.5930   -1.2840   14.6910 C   0  0  0  0  0  0  0  0  0  0  0  0
   12.4300   -0.6040   15.5510 C   0  0  0  0  0  0  0  0  0  0  0  0
   14.4350   -4.4580   19.6310 C   0  0  2  0  0  0  0  0  0  0  0  0
   15.0810   -3.2110   20.1930 C   0  0  0  0  0  0  0  0  0  0  0  0
   14.5600   -3.9230   22.3670 C   0  0  0  0  0  0  0  0  0  0  0  0
   13.4810   -2.9880   17.9300 N   0  0  0  0  0  0  0  0  0  0  0  0
   13.8750   -4.2520   18.2260 C   0  0  0  0  0  0  0  0  0  0  0  0
   13.8270   -5.1980   17.4460 O   0  0  0  0  0  0  0  0  0  0  0  0
   12.9050   -2.5010   16.7480 C   0  0  0  0  0  0  0  0  0  0  0  0
   12.0910   -3.2760   15.9110 C   0  0  0  0  0  0  0  0  0  0  0  0
   11.4320   -2.6350   14.8760 C   0  0  0  0  0  0  0  0  0  0  0  0
   13.8810   -5.1450   21.8250 C   0  0  0  0  0  0  0  0  0  0  0  0
   15.6030   -3.4700   21.4990 O   0  0  0  0  0  0  0  0  0  0  0  0
   13.3790   -4.8850   20.5030 O   0  0  0  0  0  0  0  0  0  0  0  0
  3  2  1  0
  3  1  2  0
  2 12  2  0
  1 10  1  0
 12 11  1  0
 10 11  2  0
 10  7  1  0
  7  8  1  0
  8  9  2  0
  4  8  1  6
  5  4  1  0
  5 14  1  0
  4 15  1  0
 14  6  1  0
 15 13  1  0
  6 13  1  0
M  END
$$$$
