7gq0_B_201_1_7gpw+B+202+1__LIG
     RDKit          3D

 12 11  0  0  0  0  0  0  0  0999 V2000
   -3.9300   -0.9140    7.5960 C   0  0  0  0  0  0  0  0  0  0  0  0
   -4.3960   -2.5650    5.8790 C   0  0  0  0  0  0  0  0  0  0  0  0
   -5.7830   -2.9910    6.0980 C   0  0  0  0  0  0  0  0  0  0  0  0
   -6.8910   -3.2580    6.3860 C   0  0  0  0  0  0  0  0  0  0  0  0
   -6.3640   -0.4320    7.6530 N   0  0  0  0  0  0  0  0  0  0  0  0
   -4.1320   -1.2030    6.3150 N   0  0  0  0  0  0  0  0  0  0  0  0
   -5.1790   -0.7220    8.4270 C   0  0  0  0  0  0  0  0  0  0  0  0
   -6.9980    1.8200    7.1200 C   0  0  0  0  0  0  0  0  0  0  0  0
   -7.1560    0.5870    7.9600 C   0  0  0  0  0  0  0  0  0  0  0  0
   -7.9730    0.5190    8.8730 O   0  0  0  0  0  0  0  0  0  0  0  0
   -2.8170   -0.8030    8.0970 O   0  0  0  0  0  0  0  0  0  0  0  0
   -8.5780   -3.6050    6.9010 Br  0  0  0  0  0  0  0  0  0  0  0  0
  8  9  1  0
 10  9  2  0
  9  5  1  0
  5  7  1  0
  7  1  1  0
 11  1  2  0
  1  6  1  0
  6  2  1  0
  2  3  1  0
  3  4  3  0
  4 12  1  0
M  END
$$$$
