D68EV3CPROB-x1409_A_308_1_D68EV3CPROB-x1035+A+308+1__LIG
     RDKit          3D

 16 17  0  0  0  0  0  0  0  0999 V2000
  -13.5050   -7.2300   39.4560 O   0  0  0  0  0  0  0  0  0  0  0  0
  -13.8050   -8.3840   39.7570 C   0  0  0  0  0  0  0  0  0  0  0  0
  -13.5590   -8.9690   40.9460 N   0  0  0  0  0  0  0  0  0  0  0  0
  -13.8990  -10.3850   40.9960 C   0  0  0  0  0  0  0  0  0  0  0  0
  -14.4500  -10.6020   39.6180 C   0  0  0  0  0  0  0  0  0  0  0  0
  -15.0140  -11.7670   39.0870 C   0  0  0  0  0  0  0  0  0  0  0  0
  -15.0930  -13.0460   39.8810 C   0  0  0  0  0  0  0  0  0  0  0  0
  -14.4190   -9.4280   38.8990 C   0  0  0  0  0  0  0  0  0  0  0  0
  -14.9410   -9.3400   37.6140 C   0  0  0  0  0  0  0  0  0  0  0  0
  -15.5010  -10.4960   37.0780 C   0  0  0  0  0  0  0  0  0  0  0  0
  -15.5390  -11.6920   37.7960 C   0  0  0  0  0  0  0  0  0  0  0  0
  -16.0140  -10.4650   35.7520 O   0  0  0  0  0  0  0  0  0  0  0  0
  -15.1230  -11.0430   34.5820 S   0  0  0  0  0  0  0  0  0  0  0  0
  -13.8750  -10.4260   34.6070 O   0  0  0  0  0  0  0  0  0  0  0  0
  -15.2530  -12.4390   34.6470 O   0  0  0  0  0  0  0  0  0  0  0  0
  -15.8210  -10.5970   33.3130 F   0  0  0  0  0  0  0  0  0  0  0  0
  7  6  1  0
  6 11  2  0
 11 10  1  0
 12 10  1  0
 13 12  1  0
 14 13  2  0
 15 13  2  0
 16 13  1  0
 10  9  2  0
  9  8  1  0
  8  5  2  0
  6  5  1  0
  5  4  1  0
  4  3  1  0
  3  2  1  0
  8  2  1  0
  2  1  2  0
M  END
$$$$
