7go6_A_201_1_7go6+A+201+1__LIG
     RDKit          3D

 11 12  0  0  0  0  0  0  0  0999 V2000
   -5.9330  -26.1550   27.2130 N   0  0  0  0  0  0  0  0  0  0  0  0
   -5.3760  -24.9450   27.5600 C   0  0  0  0  0  0  0  0  0  0  0  0
   -6.4100  -24.1420   27.9020 C   0  0  0  0  0  0  0  0  0  0  0  0
   -7.3130  -26.0210   27.3510 C   0  0  0  0  0  0  0  0  0  0  0  0
   -8.1400  -27.1330   27.0410 C   0  0  0  0  0  0  0  0  0  0  0  0
   -9.7350  -29.3200   26.3380 N   0  0  0  0  0  0  0  0  0  0  0  0
   -8.3870  -29.5010   26.1710 C   0  0  0  0  0  0  0  0  0  0  0  0
   -7.5980  -28.2950   26.5940 C   0  0  0  0  0  0  0  0  0  0  0  0
   -6.1630  -28.3860   26.4680 C   0  0  0  0  0  0  0  0  0  0  0  0
   -5.3860  -27.3490   26.7890 C   0  0  0  0  0  0  0  0  0  0  0  0
   -7.6200  -24.7980   27.7770 N   0  0  0  0  0  0  0  0  0  0  0  0
  2  3  2  0
  2  1  1  0
  3 11  1  0
  1 10  1  0
  1  4  1  0
 11  4  2  0
 10  9  2  0
  4  5  1  0
  9  8  1  0
  5  8  2  0
  8  7  1  0
  7  6  1  0
M  END
$$$$
