D68EV3CPROB-x0541_A_308_1_7gpw+B+202+1__LIG
     RDKit          3D

 25 28  0  0  0  0  0  0  0  0999 V2000
   -4.5960   -3.0550    6.1350 O   0  0  0  0  0  0  0  0  0  0  0  0
   -4.7650   -1.6400    6.3050 S   0  0  0  0  0  0  0  0  0  0  0  0
   -4.4490   -0.7840    5.1980 O   0  0  0  0  0  0  0  0  0  0  0  0
   -3.8210   -1.1330    7.6930 C   0  0  0  0  0  0  0  0  0  0  0  0
   -6.4430   -1.3410    6.7770 C   0  0  0  0  0  0  0  0  0  0  0  0
   -7.2510   -2.4050    7.1420 C   0  0  0  0  0  0  0  0  0  0  0  0
   -8.5650   -2.1660    7.4980 C   0  0  0  0  0  0  0  0  0  0  0  0
   -9.0940   -0.8830    7.4810 C   0  0  0  0  0  0  0  0  0  0  0  0
   -8.2640    0.1700    7.1160 C   0  0  0  0  0  0  0  0  0  0  0  0
   -6.9430   -0.0480    6.7630 C   0  0  0  0  0  0  0  0  0  0  0  0
  -10.5500   -0.6640    7.8100 C   0  0  2  0  0  0  0  0  0  0  0  0
  -11.1290    0.1450    6.7790 O   0  0  0  0  0  0  0  0  0  0  0  0
  -12.5650    0.1240    6.8540 C   0  0  0  0  0  0  0  0  0  0  0  0
  -13.0400   -0.0770    8.2770 C   0  0  0  0  0  0  0  0  0  0  0  0
  -12.1060    0.5550    9.2170 N   0  0  0  0  0  0  0  0  0  0  0  0
  -10.7510    0.0010    9.1620 C   0  0  0  0  0  0  0  0  0  0  0  0
  -12.6260    0.9460   10.4510 C   0  0  0  0  0  0  0  0  0  0  0  0
  -12.1560    2.1630   10.9290 N   0  0  0  0  0  0  0  0  0  0  0  0
  -11.2990    3.1020   10.4310 C   0  0  0  0  0  0  0  0  0  0  0  0
  -11.1810    4.1070   11.2540 N   0  0  0  0  0  0  0  0  0  0  0  0
  -11.9870    3.8440   12.3600 N   0  0  0  0  0  0  0  0  0  0  0  0
  -12.5710    2.6710   12.1570 C   0  0  0  0  0  0  0  0  0  0  0  0
  -13.4920    1.9170   12.9230 C   0  0  0  0  0  0  0  0  0  0  0  0
  -13.9580    0.7240   12.4470 C   0  0  0  0  0  0  0  0  0  0  0  0
  -13.5410    0.2170   11.1960 C   0  0  0  0  0  0  0  0  0  0  0  0
  4  2  1  0
  3  2  2  0
  2  1  2  0
  5  2  1  0
  5 10  2  0
 10  9  1  0
  9  8  2  0
 11  8  1  6
 11 16  1  0
 16 15  1  0
 17 15  1  0
 17 25  2  0
 25 24  1  0
 24 23  2  0
 23 22  1  0
 22 21  2  0
 21 20  1  0
 20 19  2  0
 19 18  1  0
 18 17  1  0
 22 18  1  0
 15 14  1  0
 14 13  1  0
 13 12  1  0
 12 11  1  0
  8  7  1  0
  7  6  2  0
  6  5  1  0
M  END
$$$$
