D68EV3CPROB-x0469_A_209_1_D68EV3CPROB-x0798+A+308+1__LIG
     RDKit          3D

 20 22  0  0  0  0  0  0  0  0999 V2000
  -19.0300   -4.1520   13.8520 O   0  0  0  0  0  0  0  0  0  0  0  0
  -19.8100   -3.4640   14.5130 C   0  0  0  0  0  0  0  0  0  0  0  0
  -19.6030   -2.0840   14.8800 C   0  0  0  0  0  0  0  0  0  0  0  0
  -20.5530   -1.4000   15.5530 C   0  0  0  0  0  0  0  0  0  0  0  0
  -20.9930   -4.0150   14.9240 N   0  0  0  0  0  0  0  0  0  0  0  0
  -21.9590   -3.3420   15.6000 C   0  0  0  0  0  0  0  0  0  0  0  0
  -21.7780   -2.0350   15.9000 C   0  0  0  0  0  0  0  0  0  0  0  0
  -22.8670   -1.3280   16.4380 N   0  0  0  0  0  0  0  0  0  0  0  0
  -23.7310   -0.6370   15.6390 C   0  0  0  0  0  0  0  0  0  0  0  0
  -23.6110   -0.5780   14.4160 O   0  0  0  0  0  0  0  0  0  0  0  0
  -24.8790    0.0330   16.3680 C   0  0  0  0  0  0  0  0  0  0  0  0
  -26.1150   -0.8130   16.1710 C   0  0  0  0  0  0  0  0  0  0  0  0
  -26.2250   -2.0790   16.7480 C   0  0  0  0  0  0  0  0  0  0  0  0
  -25.6060   -2.5250   17.8940 O   0  0  0  0  0  0  0  0  0  0  0  0
  -26.1500   -3.8340   18.1190 C   0  0  0  0  0  0  0  0  0  0  0  0
  -27.2080   -4.0550   17.1730 O   0  0  0  0  0  0  0  0  0  0  0  0
  -27.3020   -2.8830   16.4550 C   0  0  0  0  0  0  0  0  0  0  0  0
  -28.3020   -2.4800   15.5850 C   0  0  0  0  0  0  0  0  0  0  0  0
  -28.2120   -1.2140   15.0250 C   0  0  0  0  0  0  0  0  0  0  0  0
  -27.1340   -0.3910   15.3180 C   0  0  0  0  0  0  0  0  0  0  0  0
 10  9  2  0
 11  9  1  0
 12 11  1  0
 12 20  2  0
 20 19  1  0
 19 18  2  0
 18 17  1  0
 17 13  2  0
 13 12  1  0
 14 13  1  0
 15 14  1  0
 16 15  1  0
 17 16  1  0
  9  8  1  0
  8  7  1  0
  7  4  1  0
  4  3  2  0
  3  2  1  0
  2  1  2  0
  5  2  1  0
  6  5  1  0
  7  6  2  0
M  END
$$$$
