D68EV3CPROB-x1457_A_401_1_7gp9+A+201+1__LIG
     RDKit          3D

 19 20  0  0  0  0  0  0  0  0999 V2000
   -2.3060   -3.4240   31.5310 O   0  0  0  0  0  0  0  0  0  0  0  0
   -1.2240   -2.5150   31.7420 S   0  0  0  0  0  0  0  0  0  0  0  0
   -1.2350   -1.6570   32.8860 O   0  0  0  0  0  0  0  0  0  0  0  0
   -1.0970   -1.5310   30.3730 C   0  0  0  0  0  0  0  0  0  0  0  0
   -0.5720   -0.2340   30.5270 N   0  0  0  0  0  0  0  0  0  0  0  0
   -0.5620    0.3940   29.3910 C   0  0  0  0  0  0  0  0  0  0  0  0
   -1.1640   -0.4830   28.0530 S   0  0  0  0  0  0  0  0  0  0  0  0
   -1.4600   -1.8110   29.0830 C   0  0  0  0  0  0  0  0  0  0  0  0
    0.1310   -3.3970   31.8270 N   0  0  0  0  0  0  0  0  0  0  0  0
    0.5660   -4.2200   30.6870 C   0  0  0  0  0  0  0  0  0  0  0  0
    1.3340   -5.4440   31.1450 C   0  0  0  0  0  0  0  0  0  0  0  0
    0.4240   -6.3040   31.9680 C   0  0  0  0  0  0  0  0  0  0  0  0
   -0.3780   -7.1400   31.2930 N   0  0  0  0  0  0  0  0  0  0  0  0
   -1.2340   -7.8500   32.0600 C   0  0  0  0  0  0  0  0  0  0  0  0
   -2.0580   -8.6770   31.4550 O   0  0  0  0  0  0  0  0  0  0  0  0
   -1.2810   -7.7370   33.4640 C   0  0  0  0  0  0  0  0  0  0  0  0
    0.4690   -6.1350   33.2950 N   0  0  0  0  0  0  0  0  0  0  0  0
   -0.3800   -6.8600   34.0410 C   0  0  0  0  0  0  0  0  0  0  0  0
   -0.2810   -6.6920   35.5280 C   0  0  0  0  0  0  0  0  0  0  0  0
 19 18  1  0
 18 16  2  0
 16 14  1  0
 15 14  1  0
 14 13  2  0
 13 12  1  0
 12 11  1  0
 11 10  1  0
 10  9  1  0
  9  2  1  0
  3  2  2  0
  2  1  2  0
  4  2  1  0
  4  8  2  0
  8  7  1  0
  7  6  1  0
  6  5  2  0
  5  4  1  0
 17 12  2  0
 18 17  1  0
M  END
$$$$
