7gp0_A_301_1_D68EV3CPROB-x1120+A+308+1__LIG
     RDKit          3D

 14 14  0  0  0  0  0  0  0  0999 V2000
   -9.9050  -24.9720   32.4590 N   0  0  0  0  0  0  0  0  0  0  0  0
  -11.3880  -24.7210   27.4510 C   0  0  0  0  0  0  0  0  0  0  0  0
  -11.5570  -23.7620   28.4360 C   0  0  0  0  0  0  0  0  0  0  0  0
  -11.4490  -24.1170   29.7690 C   0  0  0  0  0  0  0  0  0  0  0  0
  -12.7170  -22.7920   31.1990 C   0  0  0  0  0  0  0  0  0  0  0  0
  -11.0000  -25.9300   31.7840 S   0  0  0  0  0  0  0  0  0  0  0  0
  -10.4660  -27.2660   31.8260 O   0  0  0  0  0  0  0  0  0  0  0  0
  -12.2590  -25.6450   32.4140 O   0  0  0  0  0  0  0  0  0  0  0  0
  -11.1800  -25.4520   30.1010 C   0  0  0  0  0  0  0  0  0  0  0  0
  -11.0270  -26.4120   29.1130 C   0  0  0  0  0  0  0  0  0  0  0  0
  -11.1230  -26.0340   27.7870 C   0  0  0  0  0  0  0  0  0  0  0  0
  -11.5460  -23.2420   30.8200 O   0  0  0  0  0  0  0  0  0  0  0  0
  -12.5920  -21.6880   30.5470 F   0  0  0  0  0  0  0  0  0  0  0  0
  -12.6340  -22.5070   32.4840 F   0  0  0  0  0  0  0  0  0  0  0  0
  7  6  2  0
 10 11  1  0
 10  9  2  0
  8  6  2  0
  6  9  1  0
  6  1  1  0
 11  2  2  0
  9  4  1  0
  2  3  1  0
  4  3  2  0
  4 12  1  0
  5 13  1  0
  5 12  1  0
  5 14  1  0
M  END
$$$$
