7gqd_B_201_1_7gon+B+201+1__LIG
     RDKit          3D

 15 17  0  0  0  0  0  0  0  0999 V2000
   12.5720   -1.1240   14.6630 N   0  0  0  0  0  0  0  0  0  0  0  0
   14.0360    0.8440   12.4430 C   0  0  0  0  0  0  0  0  0  0  0  0
   12.6910    1.4650   12.7060 C   0  0  0  0  0  0  0  0  0  0  0  0
   11.9020    2.2470   11.8720 C   0  0  0  0  0  0  0  0  0  0  0  0
   10.7500    2.8310   12.3620 C   0  0  0  0  0  0  0  0  0  0  0  0
   10.3600    2.6080   13.6610 C   0  0  0  0  0  0  0  0  0  0  0  0
   12.2800    1.2250   14.0080 C   0  0  0  0  0  0  0  0  0  0  0  0
   13.2540   -0.8680   16.7470 N   0  0  0  0  0  0  0  0  0  0  0  0
   12.6460   -1.7410   15.8660 C   0  0  0  0  0  0  0  0  0  0  0  0
   12.2450   -2.8700   16.1510 O   0  0  0  0  0  0  0  0  0  0  0  0
   13.5790    0.3110   16.1430 C   0  0  0  0  0  0  0  0  0  0  0  0
   13.1820    0.2000   14.6620 C   0  0  1  0  0  0  0  0  0  0  0  0
   14.4650    0.2800   13.7990 C   0  0  0  0  0  0  0  0  0  0  0  0
   11.1160    1.7940   14.4910 C   0  0  0  0  0  0  0  0  0  0  0  0
   14.1010    1.2750   16.6750 O   0  0  0  0  0  0  0  0  0  0  0  0
  4  5  1  0
  4  3  2  0
  2  3  1  0
  2 13  1  0
  5  6  2  0
  3  7  1  0
 12 13  1  6
  6 14  1  0
  7 14  2  0
  7 12  1  0
 12 11  1  0
 12  1  1  0
 15 11  2  0
 11  8  1  0
  1  9  1  0
  8  9  1  0
  9 10  2  0
M  END
$$$$
