D68EV3CPROB-x0878_B_301_1_D68EV3CPROB-x1120+A+308+1__LIG
     RDKit          3D

 24 27  0  0  0  0  0  0  0  0999 V2000
  -14.2510  -18.9440   34.6090 O   0  0  0  0  0  0  0  0  0  0  0  0
  -14.7830  -20.0540   34.5770 C   0  0  0  0  0  0  0  0  0  0  0  0
  -14.1010  -21.1560   34.1010 N   0  0  0  0  0  0  0  0  0  0  0  0
  -14.6210  -22.4100   33.9870 C   0  0  0  0  0  0  0  0  0  0  0  0
  -16.1750  -20.3090   35.0040 C   0  0  0  0  0  0  0  0  0  0  0  0
  -16.7280  -21.5990   34.9060 C   0  0  0  0  0  0  0  0  0  0  0  0
  -18.0480  -21.8070   35.3110 C   0  0  0  0  0  0  0  0  0  0  0  0
  -18.8010  -20.7550   35.8100 C   0  0  0  0  0  0  0  0  0  0  0  0
  -18.2610  -19.4910   35.9010 C   0  0  0  0  0  0  0  0  0  0  0  0
  -16.9560  -19.2600   35.5010 C   0  0  0  0  0  0  0  0  0  0  0  0
  -15.8910  -22.6850   34.3640 C   0  0  0  0  0  0  0  0  0  0  0  0
  -16.3910  -23.9850   34.2350 N   0  0  0  0  0  0  0  0  0  0  0  0
  -16.2780  -24.9060   35.2390 C   0  0  0  0  0  0  0  0  0  0  0  0
  -15.7700  -24.6320   36.3220 O   0  0  0  0  0  0  0  0  0  0  0  0
  -16.8450  -26.2810   34.9560 C   0  0  0  0  0  0  0  0  0  0  0  0
  -17.8620  -26.7970   36.0060 C   0  0  0  0  0  0  0  0  0  0  0  0
  -18.3040  -28.2700   35.8650 C   0  0  0  0  0  0  0  0  0  0  0  0
  -17.3870  -28.6270   36.9720 N   0  0  0  0  0  0  0  0  0  0  0  0
  -17.2610  -27.2070   37.3700 C   0  0  0  0  0  0  0  0  0  0  0  0
  -18.9570  -25.7630   36.1100 C   0  0  0  0  0  0  0  0  0  0  0  0
  -18.9180  -24.8320   36.9980 N   0  0  0  0  0  0  0  0  0  0  0  0
  -20.0460  -24.0210   36.7770 O   0  0  0  0  0  0  0  0  0  0  0  0
  -20.7280  -24.5210   35.7420 C   0  0  0  0  0  0  0  0  0  0  0  0
  -20.1030  -25.6060   35.2820 C   0  0  0  0  0  0  0  0  0  0  0  0
 14 13  2  0
 15 13  1  0
 16 15  1  0
 20 16  1  0
 20 24  1  0
 24 23  2  0
 23 22  1  0
 22 21  1  0
 21 20  2  0
 16 19  1  0
 19 18  1  0
 18 17  1  0
 17 16  1  0
 13 12  1  0
 12 11  1  0
 11  4  2  0
  4  3  1  0
  3  2  1  0
  2  1  2  0
  5  2  1  0
  5 10  2  0
 10  9  1  0
  9  8  2  0
  8  7  1  0
  7  6  2  0
 11  6  1  0
  6  5  1  0
M  END
$$$$
