7gp2_A_201_1_7gp9+A+201+1__LIG
     RDKit          3D

 11 11  0  0  0  0  0  0  0  0999 V2000
   -1.2210    1.4250   28.4530 N   0  0  0  0  0  0  0  0  0  0  0  0
   -1.7560    3.3480   26.3680 C   0  0  0  0  0  0  0  0  0  0  0  0
   -2.6070    2.1140   26.5440 C   0  0  0  0  0  0  0  0  0  0  0  0
   -1.7900    0.9890   27.1630 C   0  0  0  0  0  0  0  0  0  0  0  0
    0.5030   -0.6830   28.4890 C   0  0  0  0  0  0  0  0  0  0  0  0
   -0.6660    0.2330   29.4230 S   0  0  0  0  0  0  0  0  0  0  0  0
    0.0210    0.8620   30.5070 O   0  0  0  0  0  0  0  0  0  0  0  0
   -1.7780   -0.6160   29.7160 O   0  0  0  0  0  0  0  0  0  0  0  0
   -0.3730    2.6250   28.3190 C   0  0  0  0  0  0  0  0  0  0  0  0
   -1.1750    3.7640   27.7000 C   0  0  0  0  0  0  0  0  0  0  0  0
   -2.5260    4.4020   25.7890 O   0  0  0  0  0  0  0  0  0  0  0  0
  8  6  2  0
  4  1  1  0
  4  3  1  0
  6  1  1  0
  6  7  2  0
  6  5  1  0
  1  9  1  0
  3  2  1  0
 11  2  1  0
  2 10  1  0
  9 10  1  0
M  END
$$$$
