7go8_A_201_1_7gp7+A+201+1__LIG
     RDKit          3D

 14 15  0  0  0  0  0  0  0  0999 V2000
  -12.2770  -25.0550   13.4260 N   0  0  0  0  0  0  0  0  0  0  0  0
  -13.4590  -24.4070   12.8250 C   0  0  0  0  0  0  0  0  0  0  0  0
  -14.3550  -25.4480   12.1620 C   0  0  0  0  0  0  0  0  0  0  0  0
  -15.6250  -24.7950   11.6740 C   0  0  0  0  0  0  0  0  0  0  0  0
  -15.5020  -23.0840   13.2730 C   0  0  0  0  0  0  0  0  0  0  0  0
  -14.2380  -23.6320   13.8840 C   0  0  0  0  0  0  0  0  0  0  0  0
  -12.4900  -25.7790   14.5720 N   0  0  0  0  0  0  0  0  0  0  0  0
  -10.3590  -24.3900   11.9050 C   0  0  0  0  0  0  0  0  0  0  0  0
  -11.1870  -24.2910   10.8980 O   0  0  0  0  0  0  0  0  0  0  0  0
  -10.9570  -25.0930   13.0340 C   0  0  0  0  0  0  0  0  0  0  0  0
  -10.3070  -25.8900   13.9580 C   0  0  0  0  0  0  0  0  0  0  0  0
  -11.2900  -26.2690   14.8670 C   0  0  0  0  0  0  0  0  0  0  0  0
   -9.1970  -23.9710   11.9000 O   0  0  0  0  0  0  0  0  0  0  0  0
  -16.3100  -24.1240   12.7330 O   0  0  0  0  0  0  0  0  0  0  0  0
 12 11  1  0
 12  7  2  0
 11 10  2  0
  7  1  1  0
  3  4  1  0
  3  2  1  0
 10  1  1  0
 10  8  1  0
  1  2  1  0
  4 14  1  0
  8  9  2  0
  8 13  1  0
  2  6  1  0
 14  5  1  0
  6  5  1  0
M  END
$$$$
