D68EV3CPROB-x1368_A_308_1_7gp9+A+201+1__LIG
     RDKit          3D

 19 20  0  0  0  0  0  0  0  0999 V2000
   -1.7960   -3.8550   31.5150 O   0  0  0  0  0  0  0  0  0  0  0  0
   -0.9200   -2.7400   31.6770 S   0  0  0  0  0  0  0  0  0  0  0  0
   -0.7690   -2.1440   32.9670 O   0  0  0  0  0  0  0  0  0  0  0  0
   -1.2560   -1.6060   30.5740 N   0  0  0  0  0  0  0  0  0  0  0  0
   -0.7620   -0.2170   30.7000 C   0  0  0  0  0  0  0  0  0  0  0  0
   -0.1560    0.0250   29.3360 C   0  0  0  0  0  0  0  0  0  0  0  0
   -1.1060   -0.6830   28.4020 C   0  0  0  0  0  0  0  0  0  0  0  0
   -1.5140   -1.9460   29.1550 C   0  0  0  0  0  0  0  0  0  0  0  0
    0.5560   -3.1420   31.1130 N   0  0  0  0  0  0  0  0  0  0  0  0
    1.4560   -4.0960   31.7680 C   0  0  0  0  0  0  0  0  0  0  0  0
    1.3950   -5.4620   31.0850 C   0  0  0  0  0  0  0  0  0  0  0  0
    0.5220   -6.3500   31.9200 C   0  0  0  0  0  0  0  0  0  0  0  0
   -0.3010   -7.1750   31.2650 N   0  0  0  0  0  0  0  0  0  0  0  0
   -1.1630   -7.8420   32.0380 C   0  0  0  0  0  0  0  0  0  0  0  0
   -2.0450   -8.5730   31.4320 O   0  0  0  0  0  0  0  0  0  0  0  0
   -1.2020   -7.7250   33.4440 C   0  0  0  0  0  0  0  0  0  0  0  0
    0.5860   -6.1690   33.2430 N   0  0  0  0  0  0  0  0  0  0  0  0
   -0.2800   -6.8570   34.0040 C   0  0  0  0  0  0  0  0  0  0  0  0
   -0.2100   -6.6240   35.4830 C   0  0  0  0  0  0  0  0  0  0  0  0
 19 18  1  0
 18 16  2  0
 16 14  1  0
 15 14  1  0
 14 13  2  0
 13 12  1  0
 12 11  1  0
 11 10  1  0
 10  9  1  0
  9  2  1  0
  3  2  2  0
  2  1  2  0
  4  2  1  0
  4  8  1  0
  8  7  1  0
  7  6  1  0
  6  5  1  0
  5  4  1  0
 17 12  2  0
 18 17  1  0
M  END
$$$$
